! Program Version,EnergyPlus, Version 9.2.0-921312fa1d, YMD=2020.06.07 16:25,
! Output:Meter Objects (applicable to this run)
Output:Meter,Electricity:Facility,hourly; !- [J]
Output:Meter:Cumulative,Electricity:Facility,hourly; !- [J]
Output:Meter,Electricity:Building,hourly; !- [J]
Output:Meter:Cumulative,Electricity:Building,hourly; !- [J]
Output:Meter,Electricity:Zone:FLOOR 1 CAFE,hourly; !- [J]
Output:Meter:Cumulative,Electricity:Zone:FLOOR 1 CAFE,hourly; !- [J]
Output:Meter,InteriorLights:Electricity,hourly; !- [J]
Output:Meter:Cumulative,InteriorLights:Electricity,hourly; !- [J]
Output:Meter,InteriorLights:Electricity:Zone:FLOOR 1 CAFE,hourly; !- [J]
Output:Meter:Cumulative,InteriorLights:Electricity:Zone:FLOOR 1 CAFE,hourly; !- [J]
Output:Meter,General:InteriorLights:Electricity,hourly; !- [J]
Output:Meter:Cumulative,General:InteriorLights:Electricity,hourly; !- [J]
Output:Meter,Electricity:Zone:FLOOR 1 CLEAN,hourly; !- [J]
Output:Meter:Cumulative,Electricity:Zone:FLOOR 1 CLEAN,hourly; !- [J]
Output:Meter,InteriorLights:Electricity:Zone:FLOOR 1 CLEAN,hourly; !- [J]
Output:Meter:Cumulative,InteriorLights:Electricity:Zone:FLOOR 1 CLEAN,hourly; !- [J]
Output:Meter,Electricity:Zone:FLOOR 1 CONFERENCE,hourly; !- [J]
Output:Meter:Cumulative,Electricity:Zone:FLOOR 1 CONFERENCE,hourly; !- [J]
Output:Meter,InteriorLights:Electricity:Zone:FLOOR 1 CONFERENCE,hourly; !- [J]
Output:Meter:Cumulative,InteriorLights:Electricity:Zone:FLOOR 1 CONFERENCE,hourly; !- [J]
Output:Meter,Electricity:Zone:FLOOR 1 DINING,hourly; !- [J]
Output:Meter:Cumulative,Electricity:Zone:FLOOR 1 DINING,hourly; !- [J]
Output:Meter,InteriorLights:Electricity:Zone:FLOOR 1 DINING,hourly; !- [J]
Output:Meter:Cumulative,InteriorLights:Electricity:Zone:FLOOR 1 DINING,hourly; !- [J]
Output:Meter,Electricity:Zone:FLOOR 1 ELEVATOR,hourly; !- [J]
Output:Meter:Cumulative,Electricity:Zone:FLOOR 1 ELEVATOR,hourly; !- [J]
Output:Meter,InteriorLights:Electricity:Zone:FLOOR 1 ELEVATOR,hourly; !- [J]
Output:Meter:Cumulative,InteriorLights:Electricity:Zone:FLOOR 1 ELEVATOR,hourly; !- [J]
Output:Meter,Electricity:Zone:FLOOR 1 EXAM,hourly; !- [J]
Output:Meter:Cumulative,Electricity:Zone:FLOOR 1 EXAM,hourly; !- [J]
Output:Meter,InteriorLights:Electricity:Zone:FLOOR 1 EXAM,hourly; !- [J]
Output:Meter:Cumulative,InteriorLights:Electricity:Zone:FLOOR 1 EXAM,hourly; !- [J]
Output:Meter,Electricity:Zone:FLOOR 1 FOOD STORAGE,hourly; !- [J]
Output:Meter:Cumulative,Electricity:Zone:FLOOR 1 FOOD STORAGE,hourly; !- [J]
Output:Meter,InteriorLights:Electricity:Zone:FLOOR 1 FOOD STORAGE,hourly; !- [J]
Output:Meter:Cumulative,InteriorLights:Electricity:Zone:FLOOR 1 FOOD STORAGE,hourly; !- [J]
Output:Meter,Electricity:Zone:FLOOR 1 GAS STORAGE,hourly; !- [J]
Output:Meter:Cumulative,Electricity:Zone:FLOOR 1 GAS STORAGE,hourly; !- [J]
Output:Meter,InteriorLights:Electricity:Zone:FLOOR 1 GAS STORAGE,hourly; !- [J]
Output:Meter:Cumulative,InteriorLights:Electricity:Zone:FLOOR 1 GAS STORAGE,hourly; !- [J]
Output:Meter,Electricity:Zone:FLOOR 1 IMAGING,hourly; !- [J]
Output:Meter:Cumulative,Electricity:Zone:FLOOR 1 IMAGING,hourly; !- [J]
Output:Meter,InteriorLights:Electricity:Zone:FLOOR 1 IMAGING,hourly; !- [J]
Output:Meter:Cumulative,InteriorLights:Electricity:Zone:FLOOR 1 IMAGING,hourly; !- [J]
Output:Meter,Electricity:Zone:FLOOR 1 KITCHEN,hourly; !- [J]
Output:Meter:Cumulative,Electricity:Zone:FLOOR 1 KITCHEN,hourly; !- [J]
Output:Meter,InteriorLights:Electricity:Zone:FLOOR 1 KITCHEN,hourly; !- [J]
Output:Meter:Cumulative,InteriorLights:Electricity:Zone:FLOOR 1 KITCHEN,hourly; !- [J]
Output:Meter,Electricity:Zone:FLOOR 1 LAB 1,hourly; !- [J]
Output:Meter:Cumulative,Electricity:Zone:FLOOR 1 LAB 1,hourly; !- [J]
Output:Meter,InteriorLights:Electricity:Zone:FLOOR 1 LAB 1,hourly; !- [J]
Output:Meter:Cumulative,InteriorLights:Electricity:Zone:FLOOR 1 LAB 1,hourly; !- [J]
Output:Meter,Electricity:Zone:FLOOR 1 LAB 2,hourly; !- [J]
Output:Meter:Cumulative,Electricity:Zone:FLOOR 1 LAB 2,hourly; !- [J]
Output:Meter,InteriorLights:Electricity:Zone:FLOOR 1 LAB 2,hourly; !- [J]
Output:Meter:Cumulative,InteriorLights:Electricity:Zone:FLOOR 1 LAB 2,hourly; !- [J]
Output:Meter,Electricity:Zone:FLOOR 1 LAUNDRY,hourly; !- [J]
Output:Meter:Cumulative,Electricity:Zone:FLOOR 1 LAUNDRY,hourly; !- [J]
Output:Meter,InteriorLights:Electricity:Zone:FLOOR 1 LAUNDRY,hourly; !- [J]
Output:Meter:Cumulative,InteriorLights:Electricity:Zone:FLOOR 1 LAUNDRY,hourly; !- [J]
Output:Meter,Electricity:Zone:FLOOR 1 LOBBY,hourly; !- [J]
Output:Meter:Cumulative,Electricity:Zone:FLOOR 1 LOBBY,hourly; !- [J]
Output:Meter,InteriorLights:Electricity:Zone:FLOOR 1 LOBBY,hourly; !- [J]
Output:Meter:Cumulative,InteriorLights:Electricity:Zone:FLOOR 1 LOBBY,hourly; !- [J]
Output:Meter,Electricity:Zone:FLOOR 1 LOUNGE,hourly; !- [J]
Output:Meter:Cumulative,Electricity:Zone:FLOOR 1 LOUNGE,hourly; !- [J]
Output:Meter,InteriorLights:Electricity:Zone:FLOOR 1 LOUNGE,hourly; !- [J]
Output:Meter:Cumulative,InteriorLights:Electricity:Zone:FLOOR 1 LOUNGE,hourly; !- [J]
Output:Meter,Electricity:Zone:FLOOR 1 MECH 1,hourly; !- [J]
Output:Meter:Cumulative,Electricity:Zone:FLOOR 1 MECH 1,hourly; !- [J]
Output:Meter,InteriorLights:Electricity:Zone:FLOOR 1 MECH 1,hourly; !- [J]
Output:Meter:Cumulative,InteriorLights:Electricity:Zone:FLOOR 1 MECH 1,hourly; !- [J]
Output:Meter,Electricity:Zone:FLOOR 1 MECH 2,hourly; !- [J]
Output:Meter:Cumulative,Electricity:Zone:FLOOR 1 MECH 2,hourly; !- [J]
Output:Meter,InteriorLights:Electricity:Zone:FLOOR 1 MECH 2,hourly; !- [J]
Output:Meter:Cumulative,InteriorLights:Electricity:Zone:FLOOR 1 MECH 2,hourly; !- [J]
Output:Meter,Electricity:Zone:FLOOR 1 OFFICE 1,hourly; !- [J]
Output:Meter:Cumulative,Electricity:Zone:FLOOR 1 OFFICE 1,hourly; !- [J]
Output:Meter,InteriorLights:Electricity:Zone:FLOOR 1 OFFICE 1,hourly; !- [J]
Output:Meter:Cumulative,InteriorLights:Electricity:Zone:FLOOR 1 OFFICE 1,hourly; !- [J]
Output:Meter,Electricity:Zone:FLOOR 1 OFFICE 2,hourly; !- [J]
Output:Meter:Cumulative,Electricity:Zone:FLOOR 1 OFFICE 2,hourly; !- [J]
Output:Meter,InteriorLights:Electricity:Zone:FLOOR 1 OFFICE 2,hourly; !- [J]
Output:Meter:Cumulative,InteriorLights:Electricity:Zone:FLOOR 1 OFFICE 2,hourly; !- [J]
Output:Meter,Electricity:Zone:FLOOR 1 OFFICE 3,hourly; !- [J]
Output:Meter:Cumulative,Electricity:Zone:FLOOR 1 OFFICE 3,hourly; !- [J]
Output:Meter,InteriorLights:Electricity:Zone:FLOOR 1 OFFICE 3,hourly; !- [J]
Output:Meter:Cumulative,InteriorLights:Electricity:Zone:FLOOR 1 OFFICE 3,hourly; !- [J]
Output:Meter,Electricity:Zone:FLOOR 1 OFFICE 3 PERIMETER 1,hourly; !- [J]
Output:Meter:Cumulative,Electricity:Zone:FLOOR 1 OFFICE 3 PERIMETER 1,hourly; !- [J]
Output:Meter,InteriorLights:Electricity:Zone:FLOOR 1 OFFICE 3 PERIMETER 1,hourly; !- [J]
Output:Meter:Cumulative,InteriorLights:Electricity:Zone:FLOOR 1 OFFICE 3 PERIMETER 1,hourly; !- [J]
Output:Meter,Electricity:Zone:FLOOR 1 OFFICE 3 PERIMETER 2,hourly; !- [J]
Output:Meter:Cumulative,Electricity:Zone:FLOOR 1 OFFICE 3 PERIMETER 2,hourly; !- [J]
Output:Meter,InteriorLights:Electricity:Zone:FLOOR 1 OFFICE 3 PERIMETER 2,hourly; !- [J]
Output:Meter:Cumulative,InteriorLights:Electricity:Zone:FLOOR 1 OFFICE 3 PERIMETER 2,hourly; !- [J]
Output:Meter,Electricity:Zone:FLOOR 1 OFFICE 3 PERIMETER 3,hourly; !- [J]
Output:Meter:Cumulative,Electricity:Zone:FLOOR 1 OFFICE 3 PERIMETER 3,hourly; !- [J]
Output:Meter,InteriorLights:Electricity:Zone:FLOOR 1 OFFICE 3 PERIMETER 3,hourly; !- [J]
Output:Meter:Cumulative,InteriorLights:Electricity:Zone:FLOOR 1 OFFICE 3 PERIMETER 3,hourly; !- [J]
Output:Meter,Electricity:Zone:FLOOR 1 PATIENT,hourly; !- [J]
Output:Meter:Cumulative,Electricity:Zone:FLOOR 1 PATIENT,hourly; !- [J]
Output:Meter,InteriorLights:Electricity:Zone:FLOOR 1 PATIENT,hourly; !- [J]
Output:Meter:Cumulative,InteriorLights:Electricity:Zone:FLOOR 1 PATIENT,hourly; !- [J]
Output:Meter,Electricity:Zone:FLOOR 1 PHARMACY,hourly; !- [J]
Output:Meter:Cumulative,Electricity:Zone:FLOOR 1 PHARMACY,hourly; !- [J]
Output:Meter,InteriorLights:Electricity:Zone:FLOOR 1 PHARMACY,hourly; !- [J]
Output:Meter:Cumulative,InteriorLights:Electricity:Zone:FLOOR 1 PHARMACY,hourly; !- [J]
Output:Meter,Electricity:Zone:FLOOR 1 PHYSICAL THERAPY,hourly; !- [J]
Output:Meter:Cumulative,Electricity:Zone:FLOOR 1 PHYSICAL THERAPY,hourly; !- [J]
Output:Meter,InteriorLights:Electricity:Zone:FLOOR 1 PHYSICAL THERAPY,hourly; !- [J]
Output:Meter:Cumulative,InteriorLights:Electricity:Zone:FLOOR 1 PHYSICAL THERAPY,hourly; !- [J]
Output:Meter,Electricity:Zone:FLOOR 1 RECEIVING,hourly; !- [J]
Output:Meter:Cumulative,Electricity:Zone:FLOOR 1 RECEIVING,hourly; !- [J]
Output:Meter,InteriorLights:Electricity:Zone:FLOOR 1 RECEIVING,hourly; !- [J]
Output:Meter:Cumulative,InteriorLights:Electricity:Zone:FLOOR 1 RECEIVING,hourly; !- [J]
Output:Meter,Electricity:Zone:FLOOR 1 RECEPTION,hourly; !- [J]
Output:Meter:Cumulative,Electricity:Zone:FLOOR 1 RECEPTION,hourly; !- [J]
Output:Meter,InteriorLights:Electricity:Zone:FLOOR 1 RECEPTION,hourly; !- [J]
Output:Meter:Cumulative,InteriorLights:Electricity:Zone:FLOOR 1 RECEPTION,hourly; !- [J]
Output:Meter,Electricity:Zone:FLOOR 1 SOIL,hourly; !- [J]
Output:Meter:Cumulative,Electricity:Zone:FLOOR 1 SOIL,hourly; !- [J]
Output:Meter,InteriorLights:Electricity:Zone:FLOOR 1 SOIL,hourly; !- [J]
Output:Meter:Cumulative,InteriorLights:Electricity:Zone:FLOOR 1 SOIL,hourly; !- [J]
Output:Meter,Electricity:Zone:FLOOR 1 STORAGE,hourly; !- [J]
Output:Meter:Cumulative,Electricity:Zone:FLOOR 1 STORAGE,hourly; !- [J]
Output:Meter,InteriorLights:Electricity:Zone:FLOOR 1 STORAGE,hourly; !- [J]
Output:Meter:Cumulative,InteriorLights:Electricity:Zone:FLOOR 1 STORAGE,hourly; !- [J]
Output:Meter,Electricity:Zone:FLOOR 1 WAITING,hourly; !- [J]
Output:Meter:Cumulative,Electricity:Zone:FLOOR 1 WAITING,hourly; !- [J]
Output:Meter,InteriorLights:Electricity:Zone:FLOOR 1 WAITING,hourly; !- [J]
Output:Meter:Cumulative,InteriorLights:Electricity:Zone:FLOOR 1 WAITING,hourly; !- [J]
Output:Meter,Electricity:Zone:FLOOR 2 CHAPEL,hourly; !- [J]
Output:Meter:Cumulative,Electricity:Zone:FLOOR 2 CHAPEL,hourly; !- [J]
Output:Meter,InteriorLights:Electricity:Zone:FLOOR 2 CHAPEL,hourly; !- [J]
Output:Meter:Cumulative,InteriorLights:Electricity:Zone:FLOOR 2 CHAPEL,hourly; !- [J]
Output:Meter,Electricity:Zone:FLOOR 2 CLEAN 1,hourly; !- [J]
Output:Meter:Cumulative,Electricity:Zone:FLOOR 2 CLEAN 1,hourly; !- [J]
Output:Meter,InteriorLights:Electricity:Zone:FLOOR 2 CLEAN 1,hourly; !- [J]
Output:Meter:Cumulative,InteriorLights:Electricity:Zone:FLOOR 2 CLEAN 1,hourly; !- [J]
Output:Meter,Electricity:Zone:FLOOR 2 CLEAN 2,hourly; !- [J]
Output:Meter:Cumulative,Electricity:Zone:FLOOR 2 CLEAN 2,hourly; !- [J]
Output:Meter,InteriorLights:Electricity:Zone:FLOOR 2 CLEAN 2,hourly; !- [J]
Output:Meter:Cumulative,InteriorLights:Electricity:Zone:FLOOR 2 CLEAN 2,hourly; !- [J]
Output:Meter,Electricity:Zone:FLOOR 2 CORRIDOR,hourly; !- [J]
Output:Meter:Cumulative,Electricity:Zone:FLOOR 2 CORRIDOR,hourly; !- [J]
Output:Meter,InteriorLights:Electricity:Zone:FLOOR 2 CORRIDOR,hourly; !- [J]
Output:Meter:Cumulative,InteriorLights:Electricity:Zone:FLOOR 2 CORRIDOR,hourly; !- [J]
Output:Meter,Electricity:Zone:FLOOR 2 ELEVATOR,hourly; !- [J]
Output:Meter:Cumulative,Electricity:Zone:FLOOR 2 ELEVATOR,hourly; !- [J]
Output:Meter,InteriorLights:Electricity:Zone:FLOOR 2 ELEVATOR,hourly; !- [J]
Output:Meter:Cumulative,InteriorLights:Electricity:Zone:FLOOR 2 ELEVATOR,hourly; !- [J]
Output:Meter,Electricity:Zone:FLOOR 2 EXAM 1,hourly; !- [J]
Output:Meter:Cumulative,Electricity:Zone:FLOOR 2 EXAM 1,hourly; !- [J]
Output:Meter,InteriorLights:Electricity:Zone:FLOOR 2 EXAM 1,hourly; !- [J]
Output:Meter:Cumulative,InteriorLights:Electricity:Zone:FLOOR 2 EXAM 1,hourly; !- [J]
Output:Meter,Electricity:Zone:FLOOR 2 EXAM 2,hourly; !- [J]
Output:Meter:Cumulative,Electricity:Zone:FLOOR 2 EXAM 2,hourly; !- [J]
Output:Meter,InteriorLights:Electricity:Zone:FLOOR 2 EXAM 2,hourly; !- [J]
Output:Meter:Cumulative,InteriorLights:Electricity:Zone:FLOOR 2 EXAM 2,hourly; !- [J]
Output:Meter,Electricity:Zone:FLOOR 2 EXAM 3,hourly; !- [J]
Output:Meter:Cumulative,Electricity:Zone:FLOOR 2 EXAM 3,hourly; !- [J]
Output:Meter,InteriorLights:Electricity:Zone:FLOOR 2 EXAM 3,hourly; !- [J]
Output:Meter:Cumulative,InteriorLights:Electricity:Zone:FLOOR 2 EXAM 3,hourly; !- [J]
Output:Meter,Electricity:Zone:FLOOR 2 EXAM 4,hourly; !- [J]
Output:Meter:Cumulative,Electricity:Zone:FLOOR 2 EXAM 4,hourly; !- [J]
Output:Meter,InteriorLights:Electricity:Zone:FLOOR 2 EXAM 4,hourly; !- [J]
Output:Meter:Cumulative,InteriorLights:Electricity:Zone:FLOOR 2 EXAM 4,hourly; !- [J]
Output:Meter,Electricity:Zone:FLOOR 2 GIFT SHOP,hourly; !- [J]
Output:Meter:Cumulative,Electricity:Zone:FLOOR 2 GIFT SHOP,hourly; !- [J]
Output:Meter,InteriorLights:Electricity:Zone:FLOOR 2 GIFT SHOP,hourly; !- [J]
Output:Meter:Cumulative,InteriorLights:Electricity:Zone:FLOOR 2 GIFT SHOP,hourly; !- [J]
Output:Meter,Electricity:Zone:FLOOR 2 IMAGING 1,hourly; !- [J]
Output:Meter:Cumulative,Electricity:Zone:FLOOR 2 IMAGING 1,hourly; !- [J]
Output:Meter,InteriorLights:Electricity:Zone:FLOOR 2 IMAGING 1,hourly; !- [J]
Output:Meter:Cumulative,InteriorLights:Electricity:Zone:FLOOR 2 IMAGING 1,hourly; !- [J]
Output:Meter,Electricity:Zone:FLOOR 2 IMAGING 2,hourly; !- [J]
Output:Meter:Cumulative,Electricity:Zone:FLOOR 2 IMAGING 2,hourly; !- [J]
Output:Meter,InteriorLights:Electricity:Zone:FLOOR 2 IMAGING 2,hourly; !- [J]
Output:Meter:Cumulative,InteriorLights:Electricity:Zone:FLOOR 2 IMAGING 2,hourly; !- [J]
Output:Meter,Electricity:Zone:FLOOR 2 IMAGING 3,hourly; !- [J]
Output:Meter:Cumulative,Electricity:Zone:FLOOR 2 IMAGING 3,hourly; !- [J]
Output:Meter,InteriorLights:Electricity:Zone:FLOOR 2 IMAGING 3,hourly; !- [J]
Output:Meter:Cumulative,InteriorLights:Electricity:Zone:FLOOR 2 IMAGING 3,hourly; !- [J]
Output:Meter,Electricity:Zone:FLOOR 2 LAB 1,hourly; !- [J]
Output:Meter:Cumulative,Electricity:Zone:FLOOR 2 LAB 1,hourly; !- [J]
Output:Meter,InteriorLights:Electricity:Zone:FLOOR 2 LAB 1,hourly; !- [J]
Output:Meter:Cumulative,InteriorLights:Electricity:Zone:FLOOR 2 LAB 1,hourly; !- [J]
Output:Meter,Electricity:Zone:FLOOR 2 LAB 2,hourly; !- [J]
Output:Meter:Cumulative,Electricity:Zone:FLOOR 2 LAB 2,hourly; !- [J]
Output:Meter,InteriorLights:Electricity:Zone:FLOOR 2 LAB 2,hourly; !- [J]
Output:Meter:Cumulative,InteriorLights:Electricity:Zone:FLOOR 2 LAB 2,hourly; !- [J]
Output:Meter,Electricity:Zone:FLOOR 2 LOCKERS,hourly; !- [J]
Output:Meter:Cumulative,Electricity:Zone:FLOOR 2 LOCKERS,hourly; !- [J]
Output:Meter,InteriorLights:Electricity:Zone:FLOOR 2 LOCKERS,hourly; !- [J]
Output:Meter:Cumulative,InteriorLights:Electricity:Zone:FLOOR 2 LOCKERS,hourly; !- [J]
Output:Meter,Electricity:Zone:FLOOR 2 LOUNGE 1,hourly; !- [J]
Output:Meter:Cumulative,Electricity:Zone:FLOOR 2 LOUNGE 1,hourly; !- [J]
Output:Meter,InteriorLights:Electricity:Zone:FLOOR 2 LOUNGE 1,hourly; !- [J]
Output:Meter:Cumulative,InteriorLights:Electricity:Zone:FLOOR 2 LOUNGE 1,hourly; !- [J]
Output:Meter,Electricity:Zone:FLOOR 2 LOUNGE 2,hourly; !- [J]
Output:Meter:Cumulative,Electricity:Zone:FLOOR 2 LOUNGE 2,hourly; !- [J]
Output:Meter,InteriorLights:Electricity:Zone:FLOOR 2 LOUNGE 2,hourly; !- [J]
Output:Meter:Cumulative,InteriorLights:Electricity:Zone:FLOOR 2 LOUNGE 2,hourly; !- [J]
Output:Meter,Electricity:Zone:FLOOR 2 NURSE STATION 1,hourly; !- [J]
Output:Meter:Cumulative,Electricity:Zone:FLOOR 2 NURSE STATION 1,hourly; !- [J]
Output:Meter,InteriorLights:Electricity:Zone:FLOOR 2 NURSE STATION 1,hourly; !- [J]
Output:Meter:Cumulative,InteriorLights:Electricity:Zone:FLOOR 2 NURSE STATION 1,hourly; !- [J]
Output:Meter,Electricity:Zone:FLOOR 2 NURSE STATION 2,hourly; !- [J]
Output:Meter:Cumulative,Electricity:Zone:FLOOR 2 NURSE STATION 2,hourly; !- [J]
Output:Meter,InteriorLights:Electricity:Zone:FLOOR 2 NURSE STATION 2,hourly; !- [J]
Output:Meter:Cumulative,InteriorLights:Electricity:Zone:FLOOR 2 NURSE STATION 2,hourly; !- [J]
Output:Meter,Electricity:Zone:FLOOR 2 OFFICE 1,hourly; !- [J]
Output:Meter:Cumulative,Electricity:Zone:FLOOR 2 OFFICE 1,hourly; !- [J]
Output:Meter,InteriorLights:Electricity:Zone:FLOOR 2 OFFICE 1,hourly; !- [J]
Output:Meter:Cumulative,InteriorLights:Electricity:Zone:FLOOR 2 OFFICE 1,hourly; !- [J]
Output:Meter,Electricity:Zone:FLOOR 2 OFFICE 2,hourly; !- [J]
Output:Meter:Cumulative,Electricity:Zone:FLOOR 2 OFFICE 2,hourly; !- [J]
Output:Meter,InteriorLights:Electricity:Zone:FLOOR 2 OFFICE 2,hourly; !- [J]
Output:Meter:Cumulative,InteriorLights:Electricity:Zone:FLOOR 2 OFFICE 2,hourly; !- [J]
Output:Meter,Electricity:Zone:FLOOR 2 OFFICE 3,hourly; !- [J]
Output:Meter:Cumulative,Electricity:Zone:FLOOR 2 OFFICE 3,hourly; !- [J]
Output:Meter,InteriorLights:Electricity:Zone:FLOOR 2 OFFICE 3,hourly; !- [J]
Output:Meter:Cumulative,InteriorLights:Electricity:Zone:FLOOR 2 OFFICE 3,hourly; !- [J]
Output:Meter,Electricity:Zone:FLOOR 2 OFFICE 4,hourly; !- [J]
Output:Meter:Cumulative,Electricity:Zone:FLOOR 2 OFFICE 4,hourly; !- [J]
Output:Meter,InteriorLights:Electricity:Zone:FLOOR 2 OFFICE 4,hourly; !- [J]
Output:Meter:Cumulative,InteriorLights:Electricity:Zone:FLOOR 2 OFFICE 4,hourly; !- [J]
Output:Meter,Electricity:Zone:FLOOR 2 OPERATING,hourly; !- [J]
Output:Meter:Cumulative,Electricity:Zone:FLOOR 2 OPERATING,hourly; !- [J]
Output:Meter,InteriorLights:Electricity:Zone:FLOOR 2 OPERATING,hourly; !- [J]
Output:Meter:Cumulative,InteriorLights:Electricity:Zone:FLOOR 2 OPERATING,hourly; !- [J]
Output:Meter,Electricity:Zone:FLOOR 2 PACU,hourly; !- [J]
Output:Meter:Cumulative,Electricity:Zone:FLOOR 2 PACU,hourly; !- [J]
Output:Meter,InteriorLights:Electricity:Zone:FLOOR 2 PACU,hourly; !- [J]
Output:Meter:Cumulative,InteriorLights:Electricity:Zone:FLOOR 2 PACU,hourly; !- [J]
Output:Meter,Electricity:Zone:FLOOR 2 PATIENT 1,hourly; !- [J]
Output:Meter:Cumulative,Electricity:Zone:FLOOR 2 PATIENT 1,hourly; !- [J]
Output:Meter,InteriorLights:Electricity:Zone:FLOOR 2 PATIENT 1,hourly; !- [J]
Output:Meter:Cumulative,InteriorLights:Electricity:Zone:FLOOR 2 PATIENT 1,hourly; !- [J]
Output:Meter,Electricity:Zone:FLOOR 2 PATIENT 2,hourly; !- [J]
Output:Meter:Cumulative,Electricity:Zone:FLOOR 2 PATIENT 2,hourly; !- [J]
Output:Meter,InteriorLights:Electricity:Zone:FLOOR 2 PATIENT 2,hourly; !- [J]
Output:Meter:Cumulative,InteriorLights:Electricity:Zone:FLOOR 2 PATIENT 2,hourly; !- [J]
Output:Meter,Electricity:Zone:FLOOR 2 PROCEDURE 1,hourly; !- [J]
Output:Meter:Cumulative,Electricity:Zone:FLOOR 2 PROCEDURE 1,hourly; !- [J]
Output:Meter,InteriorLights:Electricity:Zone:FLOOR 2 PROCEDURE 1,hourly; !- [J]
Output:Meter:Cumulative,InteriorLights:Electricity:Zone:FLOOR 2 PROCEDURE 1,hourly; !- [J]
Output:Meter,Electricity:Zone:FLOOR 2 PROCEDURE 2,hourly; !- [J]
Output:Meter:Cumulative,Electricity:Zone:FLOOR 2 PROCEDURE 2,hourly; !- [J]
Output:Meter,InteriorLights:Electricity:Zone:FLOOR 2 PROCEDURE 2,hourly; !- [J]
Output:Meter:Cumulative,InteriorLights:Electricity:Zone:FLOOR 2 PROCEDURE 2,hourly; !- [J]
Output:Meter,Electricity:Zone:FLOOR 2 RECEPTION,hourly; !- [J]
Output:Meter:Cumulative,Electricity:Zone:FLOOR 2 RECEPTION,hourly; !- [J]
Output:Meter,InteriorLights:Electricity:Zone:FLOOR 2 RECEPTION,hourly; !- [J]
Output:Meter:Cumulative,InteriorLights:Electricity:Zone:FLOOR 2 RECEPTION,hourly; !- [J]
Output:Meter,Electricity:Zone:FLOOR 2 RESTROOM 1,hourly; !- [J]
Output:Meter:Cumulative,Electricity:Zone:FLOOR 2 RESTROOM 1,hourly; !- [J]
Output:Meter,InteriorLights:Electricity:Zone:FLOOR 2 RESTROOM 1,hourly; !- [J]
Output:Meter:Cumulative,InteriorLights:Electricity:Zone:FLOOR 2 RESTROOM 1,hourly; !- [J]
Output:Meter,Electricity:Zone:FLOOR 2 RESTROOM 2,hourly; !- [J]
Output:Meter:Cumulative,Electricity:Zone:FLOOR 2 RESTROOM 2,hourly; !- [J]
Output:Meter,InteriorLights:Electricity:Zone:FLOOR 2 RESTROOM 2,hourly; !- [J]
Output:Meter:Cumulative,InteriorLights:Electricity:Zone:FLOOR 2 RESTROOM 2,hourly; !- [J]
Output:Meter,Electricity:Zone:FLOOR 2 SOIL 1,hourly; !- [J]
Output:Meter:Cumulative,Electricity:Zone:FLOOR 2 SOIL 1,hourly; !- [J]
Output:Meter,InteriorLights:Electricity:Zone:FLOOR 2 SOIL 1,hourly; !- [J]
Output:Meter:Cumulative,InteriorLights:Electricity:Zone:FLOOR 2 SOIL 1,hourly; !- [J]
Output:Meter,Electricity:Zone:FLOOR 2 SOIL 2,hourly; !- [J]
Output:Meter:Cumulative,Electricity:Zone:FLOOR 2 SOIL 2,hourly; !- [J]
Output:Meter,InteriorLights:Electricity:Zone:FLOOR 2 SOIL 2,hourly; !- [J]
Output:Meter:Cumulative,InteriorLights:Electricity:Zone:FLOOR 2 SOIL 2,hourly; !- [J]
Output:Meter,Electricity:Zone:FLOOR 2 STERILIZING,hourly; !- [J]
Output:Meter:Cumulative,Electricity:Zone:FLOOR 2 STERILIZING,hourly; !- [J]
Output:Meter,InteriorLights:Electricity:Zone:FLOOR 2 STERILIZING,hourly; !- [J]
Output:Meter:Cumulative,InteriorLights:Electricity:Zone:FLOOR 2 STERILIZING,hourly; !- [J]
Output:Meter,Electricity:Zone:FLOOR 2 STORAGE 1,hourly; !- [J]
Output:Meter:Cumulative,Electricity:Zone:FLOOR 2 STORAGE 1,hourly; !- [J]
Output:Meter,InteriorLights:Electricity:Zone:FLOOR 2 STORAGE 1,hourly; !- [J]
Output:Meter:Cumulative,InteriorLights:Electricity:Zone:FLOOR 2 STORAGE 1,hourly; !- [J]
Output:Meter,Electricity:Zone:FLOOR 2 STORAGE 2,hourly; !- [J]
Output:Meter:Cumulative,Electricity:Zone:FLOOR 2 STORAGE 2,hourly; !- [J]
Output:Meter,InteriorLights:Electricity:Zone:FLOOR 2 STORAGE 2,hourly; !- [J]
Output:Meter:Cumulative,InteriorLights:Electricity:Zone:FLOOR 2 STORAGE 2,hourly; !- [J]
Output:Meter,Electricity:Zone:FLOOR 2 TRAUMA,hourly; !- [J]
Output:Meter:Cumulative,Electricity:Zone:FLOOR 2 TRAUMA,hourly; !- [J]
Output:Meter,InteriorLights:Electricity:Zone:FLOOR 2 TRAUMA,hourly; !- [J]
Output:Meter:Cumulative,InteriorLights:Electricity:Zone:FLOOR 2 TRAUMA,hourly; !- [J]
Output:Meter,Electricity:Zone:FLOOR 2 TRIAGE,hourly; !- [J]
Output:Meter:Cumulative,Electricity:Zone:FLOOR 2 TRIAGE,hourly; !- [J]
Output:Meter,InteriorLights:Electricity:Zone:FLOOR 2 TRIAGE,hourly; !- [J]
Output:Meter:Cumulative,InteriorLights:Electricity:Zone:FLOOR 2 TRIAGE,hourly; !- [J]
Output:Meter,Electricity:Zone:FLOOR 2 WAITING,hourly; !- [J]
Output:Meter:Cumulative,Electricity:Zone:FLOOR 2 WAITING,hourly; !- [J]
Output:Meter,InteriorLights:Electricity:Zone:FLOOR 2 WAITING,hourly; !- [J]
Output:Meter:Cumulative,InteriorLights:Electricity:Zone:FLOOR 2 WAITING,hourly; !- [J]
Output:Meter,Electricity:Zone:FLOOR 3 CLEAN,hourly; !- [J]
Output:Meter:Cumulative,Electricity:Zone:FLOOR 3 CLEAN,hourly; !- [J]
Output:Meter,InteriorLights:Electricity:Zone:FLOOR 3 CLEAN,hourly; !- [J]
Output:Meter:Cumulative,InteriorLights:Electricity:Zone:FLOOR 3 CLEAN,hourly; !- [J]
Output:Meter,Electricity:Zone:FLOOR 3 ELEVATOR,hourly; !- [J]
Output:Meter:Cumulative,Electricity:Zone:FLOOR 3 ELEVATOR,hourly; !- [J]
Output:Meter,InteriorLights:Electricity:Zone:FLOOR 3 ELEVATOR,hourly; !- [J]
Output:Meter:Cumulative,InteriorLights:Electricity:Zone:FLOOR 3 ELEVATOR,hourly; !- [J]
Output:Meter,Electricity:Zone:FLOOR 3 EXAM,hourly; !- [J]
Output:Meter:Cumulative,Electricity:Zone:FLOOR 3 EXAM,hourly; !- [J]
Output:Meter,InteriorLights:Electricity:Zone:FLOOR 3 EXAM,hourly; !- [J]
Output:Meter:Cumulative,InteriorLights:Electricity:Zone:FLOOR 3 EXAM,hourly; !- [J]
Output:Meter,Electricity:Zone:FLOOR 3 ICU,hourly; !- [J]
Output:Meter:Cumulative,Electricity:Zone:FLOOR 3 ICU,hourly; !- [J]
Output:Meter,InteriorLights:Electricity:Zone:FLOOR 3 ICU,hourly; !- [J]
Output:Meter:Cumulative,InteriorLights:Electricity:Zone:FLOOR 3 ICU,hourly; !- [J]
Output:Meter,Electricity:Zone:FLOOR 3 NURSE STATION 1,hourly; !- [J]
Output:Meter:Cumulative,Electricity:Zone:FLOOR 3 NURSE STATION 1,hourly; !- [J]
Output:Meter,InteriorLights:Electricity:Zone:FLOOR 3 NURSE STATION 1,hourly; !- [J]
Output:Meter:Cumulative,InteriorLights:Electricity:Zone:FLOOR 3 NURSE STATION 1,hourly; !- [J]
Output:Meter,Electricity:Zone:FLOOR 3 NURSE STATION 2,hourly; !- [J]
Output:Meter:Cumulative,Electricity:Zone:FLOOR 3 NURSE STATION 2,hourly; !- [J]
Output:Meter,InteriorLights:Electricity:Zone:FLOOR 3 NURSE STATION 2,hourly; !- [J]
Output:Meter:Cumulative,InteriorLights:Electricity:Zone:FLOOR 3 NURSE STATION 2,hourly; !- [J]
Output:Meter,Electricity:Zone:FLOOR 3 NURSERY,hourly; !- [J]
Output:Meter:Cumulative,Electricity:Zone:FLOOR 3 NURSERY,hourly; !- [J]
Output:Meter,InteriorLights:Electricity:Zone:FLOOR 3 NURSERY,hourly; !- [J]
Output:Meter:Cumulative,InteriorLights:Electricity:Zone:FLOOR 3 NURSERY,hourly; !- [J]
Output:Meter,Electricity:Zone:FLOOR 3 OFFICE,hourly; !- [J]
Output:Meter:Cumulative,Electricity:Zone:FLOOR 3 OFFICE,hourly; !- [J]
Output:Meter,InteriorLights:Electricity:Zone:FLOOR 3 OFFICE,hourly; !- [J]
Output:Meter:Cumulative,InteriorLights:Electricity:Zone:FLOOR 3 OFFICE,hourly; !- [J]
Output:Meter,Electricity:Zone:FLOOR 3 OPERATING,hourly; !- [J]
Output:Meter:Cumulative,Electricity:Zone:FLOOR 3 OPERATING,hourly; !- [J]
Output:Meter,InteriorLights:Electricity:Zone:FLOOR 3 OPERATING,hourly; !- [J]
Output:Meter:Cumulative,InteriorLights:Electricity:Zone:FLOOR 3 OPERATING,hourly; !- [J]
Output:Meter,Electricity:Zone:FLOOR 3 PATIENT 1,hourly; !- [J]
Output:Meter:Cumulative,Electricity:Zone:FLOOR 3 PATIENT 1,hourly; !- [J]
Output:Meter,InteriorLights:Electricity:Zone:FLOOR 3 PATIENT 1,hourly; !- [J]
Output:Meter:Cumulative,InteriorLights:Electricity:Zone:FLOOR 3 PATIENT 1,hourly; !- [J]
Output:Meter,Electricity:Zone:FLOOR 3 PATIENT 2,hourly; !- [J]
Output:Meter:Cumulative,Electricity:Zone:FLOOR 3 PATIENT 2,hourly; !- [J]
Output:Meter,InteriorLights:Electricity:Zone:FLOOR 3 PATIENT 2,hourly; !- [J]
Output:Meter:Cumulative,InteriorLights:Electricity:Zone:FLOOR 3 PATIENT 2,hourly; !- [J]
Output:Meter,Electricity:Zone:FLOOR 3 PATIENT 3,hourly; !- [J]
Output:Meter:Cumulative,Electricity:Zone:FLOOR 3 PATIENT 3,hourly; !- [J]
Output:Meter,InteriorLights:Electricity:Zone:FLOOR 3 PATIENT 3,hourly; !- [J]
Output:Meter:Cumulative,InteriorLights:Electricity:Zone:FLOOR 3 PATIENT 3,hourly; !- [J]
Output:Meter,Electricity:Zone:FLOOR 3 PATIENT 4,hourly; !- [J]
Output:Meter:Cumulative,Electricity:Zone:FLOOR 3 PATIENT 4,hourly; !- [J]
Output:Meter,InteriorLights:Electricity:Zone:FLOOR 3 PATIENT 4,hourly; !- [J]
Output:Meter:Cumulative,InteriorLights:Electricity:Zone:FLOOR 3 PATIENT 4,hourly; !- [J]
Output:Meter,Electricity:Zone:FLOOR 3 PATIENT CORRIDOR 1,hourly; !- [J]
Output:Meter:Cumulative,Electricity:Zone:FLOOR 3 PATIENT CORRIDOR 1,hourly; !- [J]
Output:Meter,InteriorLights:Electricity:Zone:FLOOR 3 PATIENT CORRIDOR 1,hourly; !- [J]
Output:Meter:Cumulative,InteriorLights:Electricity:Zone:FLOOR 3 PATIENT CORRIDOR 1,hourly; !- [J]
Output:Meter,Electricity:Zone:FLOOR 3 PATIENT CORRIDOR 2,hourly; !- [J]
Output:Meter:Cumulative,Electricity:Zone:FLOOR 3 PATIENT CORRIDOR 2,hourly; !- [J]
Output:Meter,InteriorLights:Electricity:Zone:FLOOR 3 PATIENT CORRIDOR 2,hourly; !- [J]
Output:Meter:Cumulative,InteriorLights:Electricity:Zone:FLOOR 3 PATIENT CORRIDOR 2,hourly; !- [J]
Output:Meter,Electricity:Zone:FLOOR 3 PROCEDURE,hourly; !- [J]
Output:Meter:Cumulative,Electricity:Zone:FLOOR 3 PROCEDURE,hourly; !- [J]
Output:Meter,InteriorLights:Electricity:Zone:FLOOR 3 PROCEDURE,hourly; !- [J]
Output:Meter:Cumulative,InteriorLights:Electricity:Zone:FLOOR 3 PROCEDURE,hourly; !- [J]
Output:Meter,Electricity:Zone:FLOOR 3 SOIL,hourly; !- [J]
Output:Meter:Cumulative,Electricity:Zone:FLOOR 3 SOIL,hourly; !- [J]
Output:Meter,InteriorLights:Electricity:Zone:FLOOR 3 SOIL,hourly; !- [J]
Output:Meter:Cumulative,InteriorLights:Electricity:Zone:FLOOR 3 SOIL,hourly; !- [J]
Output:Meter,Electricity:Zone:FLOOR 3 SUPPLY,hourly; !- [J]
Output:Meter:Cumulative,Electricity:Zone:FLOOR 3 SUPPLY,hourly; !- [J]
Output:Meter,InteriorLights:Electricity:Zone:FLOOR 3 SUPPLY,hourly; !- [J]
Output:Meter:Cumulative,InteriorLights:Electricity:Zone:FLOOR 3 SUPPLY,hourly; !- [J]
Output:Meter,Electricity:Zone:FLOOR 3 TRIAGE,hourly; !- [J]
Output:Meter:Cumulative,Electricity:Zone:FLOOR 3 TRIAGE,hourly; !- [J]
Output:Meter,InteriorLights:Electricity:Zone:FLOOR 3 TRIAGE,hourly; !- [J]
Output:Meter:Cumulative,InteriorLights:Electricity:Zone:FLOOR 3 TRIAGE,hourly; !- [J]
Output:Meter,Electricity:Zone:FLOOR 3 WAITING,hourly; !- [J]
Output:Meter:Cumulative,Electricity:Zone:FLOOR 3 WAITING,hourly; !- [J]
Output:Meter,InteriorLights:Electricity:Zone:FLOOR 3 WAITING,hourly; !- [J]
Output:Meter:Cumulative,InteriorLights:Electricity:Zone:FLOOR 3 WAITING,hourly; !- [J]
Output:Meter,Electricity:Zone:FLOOR 4-6 CLEAN,hourly; !- [J]
Output:Meter:Cumulative,Electricity:Zone:FLOOR 4-6 CLEAN,hourly; !- [J]
Output:Meter,InteriorLights:Electricity:Zone:FLOOR 4-6 CLEAN,hourly; !- [J]
Output:Meter:Cumulative,InteriorLights:Electricity:Zone:FLOOR 4-6 CLEAN,hourly; !- [J]
Output:Meter,Electricity:Zone:FLOOR 4-6 ELEVATOR,hourly; !- [J]
Output:Meter:Cumulative,Electricity:Zone:FLOOR 4-6 ELEVATOR,hourly; !- [J]
Output:Meter,InteriorLights:Electricity:Zone:FLOOR 4-6 ELEVATOR,hourly; !- [J]
Output:Meter:Cumulative,InteriorLights:Electricity:Zone:FLOOR 4-6 ELEVATOR,hourly; !- [J]
Output:Meter,Electricity:Zone:FLOOR 4-6 NURSE STATION,hourly; !- [J]
Output:Meter:Cumulative,Electricity:Zone:FLOOR 4-6 NURSE STATION,hourly; !- [J]
Output:Meter,InteriorLights:Electricity:Zone:FLOOR 4-6 NURSE STATION,hourly; !- [J]
Output:Meter:Cumulative,InteriorLights:Electricity:Zone:FLOOR 4-6 NURSE STATION,hourly; !- [J]
Output:Meter,Electricity:Zone:FLOOR 4-6 OFFICE,hourly; !- [J]
Output:Meter:Cumulative,Electricity:Zone:FLOOR 4-6 OFFICE,hourly; !- [J]
Output:Meter,InteriorLights:Electricity:Zone:FLOOR 4-6 OFFICE,hourly; !- [J]
Output:Meter:Cumulative,InteriorLights:Electricity:Zone:FLOOR 4-6 OFFICE,hourly; !- [J]
Output:Meter,Electricity:Zone:FLOOR 4-6 PATIENT 1,hourly; !- [J]
Output:Meter:Cumulative,Electricity:Zone:FLOOR 4-6 PATIENT 1,hourly; !- [J]
Output:Meter,InteriorLights:Electricity:Zone:FLOOR 4-6 PATIENT 1,hourly; !- [J]
Output:Meter:Cumulative,InteriorLights:Electricity:Zone:FLOOR 4-6 PATIENT 1,hourly; !- [J]
Output:Meter,Electricity:Zone:FLOOR 4-6 PATIENT 2,hourly; !- [J]
Output:Meter:Cumulative,Electricity:Zone:FLOOR 4-6 PATIENT 2,hourly; !- [J]
Output:Meter,InteriorLights:Electricity:Zone:FLOOR 4-6 PATIENT 2,hourly; !- [J]
Output:Meter:Cumulative,InteriorLights:Electricity:Zone:FLOOR 4-6 PATIENT 2,hourly; !- [J]
Output:Meter,Electricity:Zone:FLOOR 4-6 PATIENT 3,hourly; !- [J]
Output:Meter:Cumulative,Electricity:Zone:FLOOR 4-6 PATIENT 3,hourly; !- [J]
Output:Meter,InteriorLights:Electricity:Zone:FLOOR 4-6 PATIENT 3,hourly; !- [J]
Output:Meter:Cumulative,InteriorLights:Electricity:Zone:FLOOR 4-6 PATIENT 3,hourly; !- [J]
Output:Meter,Electricity:Zone:FLOOR 4-6 PATIENT 4,hourly; !- [J]
Output:Meter:Cumulative,Electricity:Zone:FLOOR 4-6 PATIENT 4,hourly; !- [J]
Output:Meter,InteriorLights:Electricity:Zone:FLOOR 4-6 PATIENT 4,hourly; !- [J]
Output:Meter:Cumulative,InteriorLights:Electricity:Zone:FLOOR 4-6 PATIENT 4,hourly; !- [J]
Output:Meter,Electricity:Zone:FLOOR 4-6 PATIENT CORRIDOR 1,hourly; !- [J]
Output:Meter:Cumulative,Electricity:Zone:FLOOR 4-6 PATIENT CORRIDOR 1,hourly; !- [J]
Output:Meter,InteriorLights:Electricity:Zone:FLOOR 4-6 PATIENT CORRIDOR 1,hourly; !- [J]
Output:Meter:Cumulative,InteriorLights:Electricity:Zone:FLOOR 4-6 PATIENT CORRIDOR 1,hourly; !- [J]
Output:Meter,Electricity:Zone:FLOOR 4-6 PATIENT CORRIDOR 2,hourly; !- [J]
Output:Meter:Cumulative,Electricity:Zone:FLOOR 4-6 PATIENT CORRIDOR 2,hourly; !- [J]
Output:Meter,InteriorLights:Electricity:Zone:FLOOR 4-6 PATIENT CORRIDOR 2,hourly; !- [J]
Output:Meter:Cumulative,InteriorLights:Electricity:Zone:FLOOR 4-6 PATIENT CORRIDOR 2,hourly; !- [J]
Output:Meter,Electricity:Zone:FLOOR 4-6 SOIL,hourly; !- [J]
Output:Meter:Cumulative,Electricity:Zone:FLOOR 4-6 SOIL,hourly; !- [J]
Output:Meter,InteriorLights:Electricity:Zone:FLOOR 4-6 SOIL,hourly; !- [J]
Output:Meter:Cumulative,InteriorLights:Electricity:Zone:FLOOR 4-6 SOIL,hourly; !- [J]
Output:Meter,Electricity:Zone:FLOOR 4-6 SUPPLY,hourly; !- [J]
Output:Meter:Cumulative,Electricity:Zone:FLOOR 4-6 SUPPLY,hourly; !- [J]
Output:Meter,InteriorLights:Electricity:Zone:FLOOR 4-6 SUPPLY,hourly; !- [J]
Output:Meter:Cumulative,InteriorLights:Electricity:Zone:FLOOR 4-6 SUPPLY,hourly; !- [J]
Output:Meter,Electricity:Zone:FLOOR 7 CLEAN,hourly; !- [J]
Output:Meter:Cumulative,Electricity:Zone:FLOOR 7 CLEAN,hourly; !- [J]
Output:Meter,InteriorLights:Electricity:Zone:FLOOR 7 CLEAN,hourly; !- [J]
Output:Meter:Cumulative,InteriorLights:Electricity:Zone:FLOOR 7 CLEAN,hourly; !- [J]
Output:Meter,Electricity:Zone:FLOOR 7 ELEVATOR,hourly; !- [J]
Output:Meter:Cumulative,Electricity:Zone:FLOOR 7 ELEVATOR,hourly; !- [J]
Output:Meter,InteriorLights:Electricity:Zone:FLOOR 7 ELEVATOR,hourly; !- [J]
Output:Meter:Cumulative,InteriorLights:Electricity:Zone:FLOOR 7 ELEVATOR,hourly; !- [J]
Output:Meter,Electricity:Zone:FLOOR 7 NURSE STATION,hourly; !- [J]
Output:Meter:Cumulative,Electricity:Zone:FLOOR 7 NURSE STATION,hourly; !- [J]
Output:Meter,InteriorLights:Electricity:Zone:FLOOR 7 NURSE STATION,hourly; !- [J]
Output:Meter:Cumulative,InteriorLights:Electricity:Zone:FLOOR 7 NURSE STATION,hourly; !- [J]
Output:Meter,Electricity:Zone:FLOOR 7 OFFICE,hourly; !- [J]
Output:Meter:Cumulative,Electricity:Zone:FLOOR 7 OFFICE,hourly; !- [J]
Output:Meter,InteriorLights:Electricity:Zone:FLOOR 7 OFFICE,hourly; !- [J]
Output:Meter:Cumulative,InteriorLights:Electricity:Zone:FLOOR 7 OFFICE,hourly; !- [J]
Output:Meter,Electricity:Zone:FLOOR 7 PATIENT 1,hourly; !- [J]
Output:Meter:Cumulative,Electricity:Zone:FLOOR 7 PATIENT 1,hourly; !- [J]
Output:Meter,InteriorLights:Electricity:Zone:FLOOR 7 PATIENT 1,hourly; !- [J]
Output:Meter:Cumulative,InteriorLights:Electricity:Zone:FLOOR 7 PATIENT 1,hourly; !- [J]
Output:Meter,Electricity:Zone:FLOOR 7 PATIENT 2,hourly; !- [J]
Output:Meter:Cumulative,Electricity:Zone:FLOOR 7 PATIENT 2,hourly; !- [J]
Output:Meter,InteriorLights:Electricity:Zone:FLOOR 7 PATIENT 2,hourly; !- [J]
Output:Meter:Cumulative,InteriorLights:Electricity:Zone:FLOOR 7 PATIENT 2,hourly; !- [J]
Output:Meter,Electricity:Zone:FLOOR 7 PATIENT 3,hourly; !- [J]
Output:Meter:Cumulative,Electricity:Zone:FLOOR 7 PATIENT 3,hourly; !- [J]
Output:Meter,InteriorLights:Electricity:Zone:FLOOR 7 PATIENT 3,hourly; !- [J]
Output:Meter:Cumulative,InteriorLights:Electricity:Zone:FLOOR 7 PATIENT 3,hourly; !- [J]
Output:Meter,Electricity:Zone:FLOOR 7 PATIENT 4,hourly; !- [J]
Output:Meter:Cumulative,Electricity:Zone:FLOOR 7 PATIENT 4,hourly; !- [J]
Output:Meter,InteriorLights:Electricity:Zone:FLOOR 7 PATIENT 4,hourly; !- [J]
Output:Meter:Cumulative,InteriorLights:Electricity:Zone:FLOOR 7 PATIENT 4,hourly; !- [J]
Output:Meter,Electricity:Zone:FLOOR 7 PATIENT CORRIDOR 1,hourly; !- [J]
Output:Meter:Cumulative,Electricity:Zone:FLOOR 7 PATIENT CORRIDOR 1,hourly; !- [J]
Output:Meter,InteriorLights:Electricity:Zone:FLOOR 7 PATIENT CORRIDOR 1,hourly; !- [J]
Output:Meter:Cumulative,InteriorLights:Electricity:Zone:FLOOR 7 PATIENT CORRIDOR 1,hourly; !- [J]
Output:Meter,Electricity:Zone:FLOOR 7 PATIENT CORRIDOR 2,hourly; !- [J]
Output:Meter:Cumulative,Electricity:Zone:FLOOR 7 PATIENT CORRIDOR 2,hourly; !- [J]
Output:Meter,InteriorLights:Electricity:Zone:FLOOR 7 PATIENT CORRIDOR 2,hourly; !- [J]
Output:Meter:Cumulative,InteriorLights:Electricity:Zone:FLOOR 7 PATIENT CORRIDOR 2,hourly; !- [J]
Output:Meter,Electricity:Zone:FLOOR 7 SOIL,hourly; !- [J]
Output:Meter:Cumulative,Electricity:Zone:FLOOR 7 SOIL,hourly; !- [J]
Output:Meter,InteriorLights:Electricity:Zone:FLOOR 7 SOIL,hourly; !- [J]
Output:Meter:Cumulative,InteriorLights:Electricity:Zone:FLOOR 7 SOIL,hourly; !- [J]
Output:Meter,Electricity:Zone:FLOOR 7 SUPPLY,hourly; !- [J]
Output:Meter:Cumulative,Electricity:Zone:FLOOR 7 SUPPLY,hourly; !- [J]
Output:Meter,InteriorLights:Electricity:Zone:FLOOR 7 SUPPLY,hourly; !- [J]
Output:Meter:Cumulative,InteriorLights:Electricity:Zone:FLOOR 7 SUPPLY,hourly; !- [J]
Output:Meter,Electricity:Zone:MOB FLOOR 1 CORE,hourly; !- [J]
Output:Meter:Cumulative,Electricity:Zone:MOB FLOOR 1 CORE,hourly; !- [J]
Output:Meter,InteriorLights:Electricity:Zone:MOB FLOOR 1 CORE,hourly; !- [J]
Output:Meter:Cumulative,InteriorLights:Electricity:Zone:MOB FLOOR 1 CORE,hourly; !- [J]
Output:Meter,Electricity:Zone:MOB FLOOR 1 PERIMETER 1,hourly; !- [J]
Output:Meter:Cumulative,Electricity:Zone:MOB FLOOR 1 PERIMETER 1,hourly; !- [J]
Output:Meter,InteriorLights:Electricity:Zone:MOB FLOOR 1 PERIMETER 1,hourly; !- [J]
Output:Meter:Cumulative,InteriorLights:Electricity:Zone:MOB FLOOR 1 PERIMETER 1,hourly; !- [J]
Output:Meter,Electricity:Zone:MOB FLOOR 1 PERIMETER 2,hourly; !- [J]
Output:Meter:Cumulative,Electricity:Zone:MOB FLOOR 1 PERIMETER 2,hourly; !- [J]
Output:Meter,InteriorLights:Electricity:Zone:MOB FLOOR 1 PERIMETER 2,hourly; !- [J]
Output:Meter:Cumulative,InteriorLights:Electricity:Zone:MOB FLOOR 1 PERIMETER 2,hourly; !- [J]
Output:Meter,Electricity:Zone:MOB FLOOR 1 PERIMETER 3,hourly; !- [J]
Output:Meter:Cumulative,Electricity:Zone:MOB FLOOR 1 PERIMETER 3,hourly; !- [J]
Output:Meter,InteriorLights:Electricity:Zone:MOB FLOOR 1 PERIMETER 3,hourly; !- [J]
Output:Meter:Cumulative,InteriorLights:Electricity:Zone:MOB FLOOR 1 PERIMETER 3,hourly; !- [J]
Output:Meter,Electricity:Zone:MOB FLOOR 2-4 CORE,hourly; !- [J]
Output:Meter:Cumulative,Electricity:Zone:MOB FLOOR 2-4 CORE,hourly; !- [J]
Output:Meter,InteriorLights:Electricity:Zone:MOB FLOOR 2-4 CORE,hourly; !- [J]
Output:Meter:Cumulative,InteriorLights:Electricity:Zone:MOB FLOOR 2-4 CORE,hourly; !- [J]
Output:Meter,Electricity:Zone:MOB FLOOR 2-4 PERIMETER 1,hourly; !- [J]
Output:Meter:Cumulative,Electricity:Zone:MOB FLOOR 2-4 PERIMETER 1,hourly; !- [J]
Output:Meter,InteriorLights:Electricity:Zone:MOB FLOOR 2-4 PERIMETER 1,hourly; !- [J]
Output:Meter:Cumulative,InteriorLights:Electricity:Zone:MOB FLOOR 2-4 PERIMETER 1,hourly; !- [J]
Output:Meter,Electricity:Zone:MOB FLOOR 2-4 PERIMETER 2,hourly; !- [J]
Output:Meter:Cumulative,Electricity:Zone:MOB FLOOR 2-4 PERIMETER 2,hourly; !- [J]
Output:Meter,InteriorLights:Electricity:Zone:MOB FLOOR 2-4 PERIMETER 2,hourly; !- [J]
Output:Meter:Cumulative,InteriorLights:Electricity:Zone:MOB FLOOR 2-4 PERIMETER 2,hourly; !- [J]
Output:Meter,Electricity:Zone:MOB FLOOR 2-4 PERIMETER 3,hourly; !- [J]
Output:Meter:Cumulative,Electricity:Zone:MOB FLOOR 2-4 PERIMETER 3,hourly; !- [J]
Output:Meter,InteriorLights:Electricity:Zone:MOB FLOOR 2-4 PERIMETER 3,hourly; !- [J]
Output:Meter:Cumulative,InteriorLights:Electricity:Zone:MOB FLOOR 2-4 PERIMETER 3,hourly; !- [J]
Output:Meter,Electricity:Zone:MOB FLOOR 2-4 PERIMETER 4,hourly; !- [J]
Output:Meter:Cumulative,Electricity:Zone:MOB FLOOR 2-4 PERIMETER 4,hourly; !- [J]
Output:Meter,InteriorLights:Electricity:Zone:MOB FLOOR 2-4 PERIMETER 4,hourly; !- [J]
Output:Meter:Cumulative,InteriorLights:Electricity:Zone:MOB FLOOR 2-4 PERIMETER 4,hourly; !- [J]
Output:Meter,Electricity:Zone:MOB FLOOR 5 CORE,hourly; !- [J]
Output:Meter:Cumulative,Electricity:Zone:MOB FLOOR 5 CORE,hourly; !- [J]
Output:Meter,InteriorLights:Electricity:Zone:MOB FLOOR 5 CORE,hourly; !- [J]
Output:Meter:Cumulative,InteriorLights:Electricity:Zone:MOB FLOOR 5 CORE,hourly; !- [J]
Output:Meter,Electricity:Zone:MOB FLOOR 5 PERIMETER 1,hourly; !- [J]
Output:Meter:Cumulative,Electricity:Zone:MOB FLOOR 5 PERIMETER 1,hourly; !- [J]
Output:Meter,InteriorLights:Electricity:Zone:MOB FLOOR 5 PERIMETER 1,hourly; !- [J]
Output:Meter:Cumulative,InteriorLights:Electricity:Zone:MOB FLOOR 5 PERIMETER 1,hourly; !- [J]
Output:Meter,Electricity:Zone:MOB FLOOR 5 PERIMETER 2,hourly; !- [J]
Output:Meter:Cumulative,Electricity:Zone:MOB FLOOR 5 PERIMETER 2,hourly; !- [J]
Output:Meter,InteriorLights:Electricity:Zone:MOB FLOOR 5 PERIMETER 2,hourly; !- [J]
Output:Meter:Cumulative,InteriorLights:Electricity:Zone:MOB FLOOR 5 PERIMETER 2,hourly; !- [J]
Output:Meter,Electricity:Zone:MOB FLOOR 5 PERIMETER 3,hourly; !- [J]
Output:Meter:Cumulative,Electricity:Zone:MOB FLOOR 5 PERIMETER 3,hourly; !- [J]
Output:Meter,InteriorLights:Electricity:Zone:MOB FLOOR 5 PERIMETER 3,hourly; !- [J]
Output:Meter:Cumulative,InteriorLights:Electricity:Zone:MOB FLOOR 5 PERIMETER 3,hourly; !- [J]
Output:Meter,Electricity:Zone:MOB FLOOR 5 PERIMETER 4,hourly; !- [J]
Output:Meter:Cumulative,Electricity:Zone:MOB FLOOR 5 PERIMETER 4,hourly; !- [J]
Output:Meter,InteriorLights:Electricity:Zone:MOB FLOOR 5 PERIMETER 4,hourly; !- [J]
Output:Meter:Cumulative,InteriorLights:Electricity:Zone:MOB FLOOR 5 PERIMETER 4,hourly; !- [J]
Output:Meter,InteriorEquipment:Electricity,hourly; !- [J]
Output:Meter:Cumulative,InteriorEquipment:Electricity,hourly; !- [J]
Output:Meter,InteriorEquipment:Electricity:Zone:FLOOR 1 CAFE,hourly; !- [J]
Output:Meter:Cumulative,InteriorEquipment:Electricity:Zone:FLOOR 1 CAFE,hourly; !- [J]
Output:Meter,General:InteriorEquipment:Electricity,hourly; !- [J]
Output:Meter:Cumulative,General:InteriorEquipment:Electricity,hourly; !- [J]
Output:Meter,InteriorEquipment:Electricity:Zone:FLOOR 1 CLEAN,hourly; !- [J]
Output:Meter:Cumulative,InteriorEquipment:Electricity:Zone:FLOOR 1 CLEAN,hourly; !- [J]
Output:Meter,InteriorEquipment:Electricity:Zone:FLOOR 1 CONFERENCE,hourly; !- [J]
Output:Meter:Cumulative,InteriorEquipment:Electricity:Zone:FLOOR 1 CONFERENCE,hourly; !- [J]
Output:Meter,InteriorEquipment:Electricity:Zone:FLOOR 1 DINING,hourly; !- [J]
Output:Meter:Cumulative,InteriorEquipment:Electricity:Zone:FLOOR 1 DINING,hourly; !- [J]
Output:Meter,InteriorEquipment:Electricity:Zone:FLOOR 1 ELEVATOR,hourly; !- [J]
Output:Meter:Cumulative,InteriorEquipment:Electricity:Zone:FLOOR 1 ELEVATOR,hourly; !- [J]
Output:Meter,InteriorEquipment:Electricity:Zone:FLOOR 1 EXAM,hourly; !- [J]
Output:Meter:Cumulative,InteriorEquipment:Electricity:Zone:FLOOR 1 EXAM,hourly; !- [J]
Output:Meter,InteriorEquipment:Electricity:Zone:FLOOR 1 FOOD STORAGE,hourly; !- [J]
Output:Meter:Cumulative,InteriorEquipment:Electricity:Zone:FLOOR 1 FOOD STORAGE,hourly; !- [J]
Output:Meter,InteriorEquipment:Electricity:Zone:FLOOR 1 GAS STORAGE,hourly; !- [J]
Output:Meter:Cumulative,InteriorEquipment:Electricity:Zone:FLOOR 1 GAS STORAGE,hourly; !- [J]
Output:Meter,InteriorEquipment:Electricity:Zone:FLOOR 1 IMAGING,hourly; !- [J]
Output:Meter:Cumulative,InteriorEquipment:Electricity:Zone:FLOOR 1 IMAGING,hourly; !- [J]
Output:Meter,InteriorEquipment:Electricity:Zone:FLOOR 1 KITCHEN,hourly; !- [J]
Output:Meter:Cumulative,InteriorEquipment:Electricity:Zone:FLOOR 1 KITCHEN,hourly; !- [J]
Output:Meter,InteriorEquipment:Electricity:Zone:FLOOR 1 LAB 1,hourly; !- [J]
Output:Meter:Cumulative,InteriorEquipment:Electricity:Zone:FLOOR 1 LAB 1,hourly; !- [J]
Output:Meter,InteriorEquipment:Electricity:Zone:FLOOR 1 LAB 2,hourly; !- [J]
Output:Meter:Cumulative,InteriorEquipment:Electricity:Zone:FLOOR 1 LAB 2,hourly; !- [J]
Output:Meter,InteriorEquipment:Electricity:Zone:FLOOR 1 LAUNDRY,hourly; !- [J]
Output:Meter:Cumulative,InteriorEquipment:Electricity:Zone:FLOOR 1 LAUNDRY,hourly; !- [J]
Output:Meter,InteriorEquipment:Electricity:Zone:FLOOR 1 LOBBY,hourly; !- [J]
Output:Meter:Cumulative,InteriorEquipment:Electricity:Zone:FLOOR 1 LOBBY,hourly; !- [J]
Output:Meter,InteriorEquipment:Electricity:Zone:FLOOR 1 LOUNGE,hourly; !- [J]
Output:Meter:Cumulative,InteriorEquipment:Electricity:Zone:FLOOR 1 LOUNGE,hourly; !- [J]
Output:Meter,InteriorEquipment:Electricity:Zone:FLOOR 1 MECH 1,hourly; !- [J]
Output:Meter:Cumulative,InteriorEquipment:Electricity:Zone:FLOOR 1 MECH 1,hourly; !- [J]
Output:Meter,InteriorEquipment:Electricity:Zone:FLOOR 1 MECH 2,hourly; !- [J]
Output:Meter:Cumulative,InteriorEquipment:Electricity:Zone:FLOOR 1 MECH 2,hourly; !- [J]
Output:Meter,InteriorEquipment:Electricity:Zone:FLOOR 1 OFFICE 1,hourly; !- [J]
Output:Meter:Cumulative,InteriorEquipment:Electricity:Zone:FLOOR 1 OFFICE 1,hourly; !- [J]
Output:Meter,InteriorEquipment:Electricity:Zone:FLOOR 1 OFFICE 2,hourly; !- [J]
Output:Meter:Cumulative,InteriorEquipment:Electricity:Zone:FLOOR 1 OFFICE 2,hourly; !- [J]
Output:Meter,InteriorEquipment:Electricity:Zone:FLOOR 1 OFFICE 3,hourly; !- [J]
Output:Meter:Cumulative,InteriorEquipment:Electricity:Zone:FLOOR 1 OFFICE 3,hourly; !- [J]
Output:Meter,InteriorEquipment:Electricity:Zone:FLOOR 1 OFFICE 3 PERIMETER 1,hourly; !- [J]
Output:Meter:Cumulative,InteriorEquipment:Electricity:Zone:FLOOR 1 OFFICE 3 PERIMETER 1,hourly; !- [J]
Output:Meter,InteriorEquipment:Electricity:Zone:FLOOR 1 OFFICE 3 PERIMETER 2,hourly; !- [J]
Output:Meter:Cumulative,InteriorEquipment:Electricity:Zone:FLOOR 1 OFFICE 3 PERIMETER 2,hourly; !- [J]
Output:Meter,InteriorEquipment:Electricity:Zone:FLOOR 1 OFFICE 3 PERIMETER 3,hourly; !- [J]
Output:Meter:Cumulative,InteriorEquipment:Electricity:Zone:FLOOR 1 OFFICE 3 PERIMETER 3,hourly; !- [J]
Output:Meter,InteriorEquipment:Electricity:Zone:FLOOR 1 PATIENT,hourly; !- [J]
Output:Meter:Cumulative,InteriorEquipment:Electricity:Zone:FLOOR 1 PATIENT,hourly; !- [J]
Output:Meter,InteriorEquipment:Electricity:Zone:FLOOR 1 PHARMACY,hourly; !- [J]
Output:Meter:Cumulative,InteriorEquipment:Electricity:Zone:FLOOR 1 PHARMACY,hourly; !- [J]
Output:Meter,InteriorEquipment:Electricity:Zone:FLOOR 1 PHYSICAL THERAPY,hourly; !- [J]
Output:Meter:Cumulative,InteriorEquipment:Electricity:Zone:FLOOR 1 PHYSICAL THERAPY,hourly; !- [J]
Output:Meter,InteriorEquipment:Electricity:Zone:FLOOR 1 RECEIVING,hourly; !- [J]
Output:Meter:Cumulative,InteriorEquipment:Electricity:Zone:FLOOR 1 RECEIVING,hourly; !- [J]
Output:Meter,InteriorEquipment:Electricity:Zone:FLOOR 1 RECEPTION,hourly; !- [J]
Output:Meter:Cumulative,InteriorEquipment:Electricity:Zone:FLOOR 1 RECEPTION,hourly; !- [J]
Output:Meter,InteriorEquipment:Electricity:Zone:FLOOR 1 STORAGE,hourly; !- [J]
Output:Meter:Cumulative,InteriorEquipment:Electricity:Zone:FLOOR 1 STORAGE,hourly; !- [J]
Output:Meter,InteriorEquipment:Electricity:Zone:FLOOR 1 WAITING,hourly; !- [J]
Output:Meter:Cumulative,InteriorEquipment:Electricity:Zone:FLOOR 1 WAITING,hourly; !- [J]
Output:Meter,InteriorEquipment:Electricity:Zone:FLOOR 2 CHAPEL,hourly; !- [J]
Output:Meter:Cumulative,InteriorEquipment:Electricity:Zone:FLOOR 2 CHAPEL,hourly; !- [J]
Output:Meter,InteriorEquipment:Electricity:Zone:FLOOR 2 CLEAN 1,hourly; !- [J]
Output:Meter:Cumulative,InteriorEquipment:Electricity:Zone:FLOOR 2 CLEAN 1,hourly; !- [J]
Output:Meter,InteriorEquipment:Electricity:Zone:FLOOR 2 CLEAN 2,hourly; !- [J]
Output:Meter:Cumulative,InteriorEquipment:Electricity:Zone:FLOOR 2 CLEAN 2,hourly; !- [J]
Output:Meter,InteriorEquipment:Electricity:Zone:FLOOR 2 CORRIDOR,hourly; !- [J]
Output:Meter:Cumulative,InteriorEquipment:Electricity:Zone:FLOOR 2 CORRIDOR,hourly; !- [J]
Output:Meter,InteriorEquipment:Electricity:Zone:FLOOR 2 ELEVATOR,hourly; !- [J]
Output:Meter:Cumulative,InteriorEquipment:Electricity:Zone:FLOOR 2 ELEVATOR,hourly; !- [J]
Output:Meter,InteriorEquipment:Electricity:Zone:FLOOR 2 EXAM 1,hourly; !- [J]
Output:Meter:Cumulative,InteriorEquipment:Electricity:Zone:FLOOR 2 EXAM 1,hourly; !- [J]
Output:Meter,InteriorEquipment:Electricity:Zone:FLOOR 2 EXAM 2,hourly; !- [J]
Output:Meter:Cumulative,InteriorEquipment:Electricity:Zone:FLOOR 2 EXAM 2,hourly; !- [J]
Output:Meter,InteriorEquipment:Electricity:Zone:FLOOR 2 EXAM 3,hourly; !- [J]
Output:Meter:Cumulative,InteriorEquipment:Electricity:Zone:FLOOR 2 EXAM 3,hourly; !- [J]
Output:Meter,InteriorEquipment:Electricity:Zone:FLOOR 2 EXAM 4,hourly; !- [J]
Output:Meter:Cumulative,InteriorEquipment:Electricity:Zone:FLOOR 2 EXAM 4,hourly; !- [J]
Output:Meter,InteriorEquipment:Electricity:Zone:FLOOR 2 GIFT SHOP,hourly; !- [J]
Output:Meter:Cumulative,InteriorEquipment:Electricity:Zone:FLOOR 2 GIFT SHOP,hourly; !- [J]
Output:Meter,InteriorEquipment:Electricity:Zone:FLOOR 2 IMAGING 1,hourly; !- [J]
Output:Meter:Cumulative,InteriorEquipment:Electricity:Zone:FLOOR 2 IMAGING 1,hourly; !- [J]
Output:Meter,InteriorEquipment:Electricity:Zone:FLOOR 2 IMAGING 2,hourly; !- [J]
Output:Meter:Cumulative,InteriorEquipment:Electricity:Zone:FLOOR 2 IMAGING 2,hourly; !- [J]
Output:Meter,InteriorEquipment:Electricity:Zone:FLOOR 2 IMAGING 3,hourly; !- [J]
Output:Meter:Cumulative,InteriorEquipment:Electricity:Zone:FLOOR 2 IMAGING 3,hourly; !- [J]
Output:Meter,InteriorEquipment:Electricity:Zone:FLOOR 2 LAB 1,hourly; !- [J]
Output:Meter:Cumulative,InteriorEquipment:Electricity:Zone:FLOOR 2 LAB 1,hourly; !- [J]
Output:Meter,InteriorEquipment:Electricity:Zone:FLOOR 2 LAB 2,hourly; !- [J]
Output:Meter:Cumulative,InteriorEquipment:Electricity:Zone:FLOOR 2 LAB 2,hourly; !- [J]
Output:Meter,InteriorEquipment:Electricity:Zone:FLOOR 2 LOCKERS,hourly; !- [J]
Output:Meter:Cumulative,InteriorEquipment:Electricity:Zone:FLOOR 2 LOCKERS,hourly; !- [J]
Output:Meter,InteriorEquipment:Electricity:Zone:FLOOR 2 LOUNGE 1,hourly; !- [J]
Output:Meter:Cumulative,InteriorEquipment:Electricity:Zone:FLOOR 2 LOUNGE 1,hourly; !- [J]
Output:Meter,InteriorEquipment:Electricity:Zone:FLOOR 2 LOUNGE 2,hourly; !- [J]
Output:Meter:Cumulative,InteriorEquipment:Electricity:Zone:FLOOR 2 LOUNGE 2,hourly; !- [J]
Output:Meter,InteriorEquipment:Electricity:Zone:FLOOR 2 NURSE STATION 1,hourly; !- [J]
Output:Meter:Cumulative,InteriorEquipment:Electricity:Zone:FLOOR 2 NURSE STATION 1,hourly; !- [J]
Output:Meter,InteriorEquipment:Electricity:Zone:FLOOR 2 NURSE STATION 2,hourly; !- [J]
Output:Meter:Cumulative,InteriorEquipment:Electricity:Zone:FLOOR 2 NURSE STATION 2,hourly; !- [J]
Output:Meter,InteriorEquipment:Electricity:Zone:FLOOR 2 OFFICE 1,hourly; !- [J]
Output:Meter:Cumulative,InteriorEquipment:Electricity:Zone:FLOOR 2 OFFICE 1,hourly; !- [J]
Output:Meter,InteriorEquipment:Electricity:Zone:FLOOR 2 OFFICE 2,hourly; !- [J]
Output:Meter:Cumulative,InteriorEquipment:Electricity:Zone:FLOOR 2 OFFICE 2,hourly; !- [J]
Output:Meter,InteriorEquipment:Electricity:Zone:FLOOR 2 OFFICE 3,hourly; !- [J]
Output:Meter:Cumulative,InteriorEquipment:Electricity:Zone:FLOOR 2 OFFICE 3,hourly; !- [J]
Output:Meter,InteriorEquipment:Electricity:Zone:FLOOR 2 OFFICE 4,hourly; !- [J]
Output:Meter:Cumulative,InteriorEquipment:Electricity:Zone:FLOOR 2 OFFICE 4,hourly; !- [J]
Output:Meter,InteriorEquipment:Electricity:Zone:FLOOR 2 OPERATING,hourly; !- [J]
Output:Meter:Cumulative,InteriorEquipment:Electricity:Zone:FLOOR 2 OPERATING,hourly; !- [J]
Output:Meter,InteriorEquipment:Electricity:Zone:FLOOR 2 PACU,hourly; !- [J]
Output:Meter:Cumulative,InteriorEquipment:Electricity:Zone:FLOOR 2 PACU,hourly; !- [J]
Output:Meter,InteriorEquipment:Electricity:Zone:FLOOR 2 PATIENT 1,hourly; !- [J]
Output:Meter:Cumulative,InteriorEquipment:Electricity:Zone:FLOOR 2 PATIENT 1,hourly; !- [J]
Output:Meter,InteriorEquipment:Electricity:Zone:FLOOR 2 PATIENT 2,hourly; !- [J]
Output:Meter:Cumulative,InteriorEquipment:Electricity:Zone:FLOOR 2 PATIENT 2,hourly; !- [J]
Output:Meter,InteriorEquipment:Electricity:Zone:FLOOR 2 PROCEDURE 1,hourly; !- [J]
Output:Meter:Cumulative,InteriorEquipment:Electricity:Zone:FLOOR 2 PROCEDURE 1,hourly; !- [J]
Output:Meter,InteriorEquipment:Electricity:Zone:FLOOR 2 PROCEDURE 2,hourly; !- [J]
Output:Meter:Cumulative,InteriorEquipment:Electricity:Zone:FLOOR 2 PROCEDURE 2,hourly; !- [J]
Output:Meter,InteriorEquipment:Electricity:Zone:FLOOR 2 RECEPTION,hourly; !- [J]
Output:Meter:Cumulative,InteriorEquipment:Electricity:Zone:FLOOR 2 RECEPTION,hourly; !- [J]
Output:Meter,InteriorEquipment:Electricity:Zone:FLOOR 2 RESTROOM 1,hourly; !- [J]
Output:Meter:Cumulative,InteriorEquipment:Electricity:Zone:FLOOR 2 RESTROOM 1,hourly; !- [J]
Output:Meter,InteriorEquipment:Electricity:Zone:FLOOR 2 RESTROOM 2,hourly; !- [J]
Output:Meter:Cumulative,InteriorEquipment:Electricity:Zone:FLOOR 2 RESTROOM 2,hourly; !- [J]
Output:Meter,InteriorEquipment:Electricity:Zone:FLOOR 2 STERILIZING,hourly; !- [J]
Output:Meter:Cumulative,InteriorEquipment:Electricity:Zone:FLOOR 2 STERILIZING,hourly; !- [J]
Output:Meter,InteriorEquipment:Electricity:Zone:FLOOR 2 STORAGE 1,hourly; !- [J]
Output:Meter:Cumulative,InteriorEquipment:Electricity:Zone:FLOOR 2 STORAGE 1,hourly; !- [J]
Output:Meter,InteriorEquipment:Electricity:Zone:FLOOR 2 STORAGE 2,hourly; !- [J]
Output:Meter:Cumulative,InteriorEquipment:Electricity:Zone:FLOOR 2 STORAGE 2,hourly; !- [J]
Output:Meter,InteriorEquipment:Electricity:Zone:FLOOR 2 TRAUMA,hourly; !- [J]
Output:Meter:Cumulative,InteriorEquipment:Electricity:Zone:FLOOR 2 TRAUMA,hourly; !- [J]
Output:Meter,InteriorEquipment:Electricity:Zone:FLOOR 2 TRIAGE,hourly; !- [J]
Output:Meter:Cumulative,InteriorEquipment:Electricity:Zone:FLOOR 2 TRIAGE,hourly; !- [J]
Output:Meter,InteriorEquipment:Electricity:Zone:FLOOR 2 WAITING,hourly; !- [J]
Output:Meter:Cumulative,InteriorEquipment:Electricity:Zone:FLOOR 2 WAITING,hourly; !- [J]
Output:Meter,InteriorEquipment:Electricity:Zone:FLOOR 3 CLEAN,hourly; !- [J]
Output:Meter:Cumulative,InteriorEquipment:Electricity:Zone:FLOOR 3 CLEAN,hourly; !- [J]
Output:Meter,InteriorEquipment:Electricity:Zone:FLOOR 3 ELEVATOR,hourly; !- [J]
Output:Meter:Cumulative,InteriorEquipment:Electricity:Zone:FLOOR 3 ELEVATOR,hourly; !- [J]
Output:Meter,InteriorEquipment:Electricity:Zone:FLOOR 3 EXAM,hourly; !- [J]
Output:Meter:Cumulative,InteriorEquipment:Electricity:Zone:FLOOR 3 EXAM,hourly; !- [J]
Output:Meter,InteriorEquipment:Electricity:Zone:FLOOR 3 ICU,hourly; !- [J]
Output:Meter:Cumulative,InteriorEquipment:Electricity:Zone:FLOOR 3 ICU,hourly; !- [J]
Output:Meter,InteriorEquipment:Electricity:Zone:FLOOR 3 NURSE STATION 1,hourly; !- [J]
Output:Meter:Cumulative,InteriorEquipment:Electricity:Zone:FLOOR 3 NURSE STATION 1,hourly; !- [J]
Output:Meter,InteriorEquipment:Electricity:Zone:FLOOR 3 NURSE STATION 2,hourly; !- [J]
Output:Meter:Cumulative,InteriorEquipment:Electricity:Zone:FLOOR 3 NURSE STATION 2,hourly; !- [J]
Output:Meter,InteriorEquipment:Electricity:Zone:FLOOR 3 NURSERY,hourly; !- [J]
Output:Meter:Cumulative,InteriorEquipment:Electricity:Zone:FLOOR 3 NURSERY,hourly; !- [J]
Output:Meter,InteriorEquipment:Electricity:Zone:FLOOR 3 OFFICE,hourly; !- [J]
Output:Meter:Cumulative,InteriorEquipment:Electricity:Zone:FLOOR 3 OFFICE,hourly; !- [J]
Output:Meter,InteriorEquipment:Electricity:Zone:FLOOR 3 OPERATING,hourly; !- [J]
Output:Meter:Cumulative,InteriorEquipment:Electricity:Zone:FLOOR 3 OPERATING,hourly; !- [J]
Output:Meter,InteriorEquipment:Electricity:Zone:FLOOR 3 PATIENT 1,hourly; !- [J]
Output:Meter:Cumulative,InteriorEquipment:Electricity:Zone:FLOOR 3 PATIENT 1,hourly; !- [J]
Output:Meter,InteriorEquipment:Electricity:Zone:FLOOR 3 PATIENT 2,hourly; !- [J]
Output:Meter:Cumulative,InteriorEquipment:Electricity:Zone:FLOOR 3 PATIENT 2,hourly; !- [J]
Output:Meter,InteriorEquipment:Electricity:Zone:FLOOR 3 PATIENT 3,hourly; !- [J]
Output:Meter:Cumulative,InteriorEquipment:Electricity:Zone:FLOOR 3 PATIENT 3,hourly; !- [J]
Output:Meter,InteriorEquipment:Electricity:Zone:FLOOR 3 PATIENT 4,hourly; !- [J]
Output:Meter:Cumulative,InteriorEquipment:Electricity:Zone:FLOOR 3 PATIENT 4,hourly; !- [J]
Output:Meter,InteriorEquipment:Electricity:Zone:FLOOR 3 PATIENT CORRIDOR 1,hourly; !- [J]
Output:Meter:Cumulative,InteriorEquipment:Electricity:Zone:FLOOR 3 PATIENT CORRIDOR 1,hourly; !- [J]
Output:Meter,InteriorEquipment:Electricity:Zone:FLOOR 3 PATIENT CORRIDOR 2,hourly; !- [J]
Output:Meter:Cumulative,InteriorEquipment:Electricity:Zone:FLOOR 3 PATIENT CORRIDOR 2,hourly; !- [J]
Output:Meter,InteriorEquipment:Electricity:Zone:FLOOR 3 PROCEDURE,hourly; !- [J]
Output:Meter:Cumulative,InteriorEquipment:Electricity:Zone:FLOOR 3 PROCEDURE,hourly; !- [J]
Output:Meter,InteriorEquipment:Electricity:Zone:FLOOR 3 SUPPLY,hourly; !- [J]
Output:Meter:Cumulative,InteriorEquipment:Electricity:Zone:FLOOR 3 SUPPLY,hourly; !- [J]
Output:Meter,InteriorEquipment:Electricity:Zone:FLOOR 3 TRIAGE,hourly; !- [J]
Output:Meter:Cumulative,InteriorEquipment:Electricity:Zone:FLOOR 3 TRIAGE,hourly; !- [J]
Output:Meter,InteriorEquipment:Electricity:Zone:FLOOR 3 WAITING,hourly; !- [J]
Output:Meter:Cumulative,InteriorEquipment:Electricity:Zone:FLOOR 3 WAITING,hourly; !- [J]
Output:Meter,InteriorEquipment:Electricity:Zone:FLOOR 4-6 CLEAN,hourly; !- [J]
Output:Meter:Cumulative,InteriorEquipment:Electricity:Zone:FLOOR 4-6 CLEAN,hourly; !- [J]
Output:Meter,InteriorEquipment:Electricity:Zone:FLOOR 4-6 ELEVATOR,hourly; !- [J]
Output:Meter:Cumulative,InteriorEquipment:Electricity:Zone:FLOOR 4-6 ELEVATOR,hourly; !- [J]
Output:Meter,InteriorEquipment:Electricity:Zone:FLOOR 4-6 NURSE STATION,hourly; !- [J]
Output:Meter:Cumulative,InteriorEquipment:Electricity:Zone:FLOOR 4-6 NURSE STATION,hourly; !- [J]
Output:Meter,InteriorEquipment:Electricity:Zone:FLOOR 4-6 OFFICE,hourly; !- [J]
Output:Meter:Cumulative,InteriorEquipment:Electricity:Zone:FLOOR 4-6 OFFICE,hourly; !- [J]
Output:Meter,InteriorEquipment:Electricity:Zone:FLOOR 4-6 PATIENT 1,hourly; !- [J]
Output:Meter:Cumulative,InteriorEquipment:Electricity:Zone:FLOOR 4-6 PATIENT 1,hourly; !- [J]
Output:Meter,InteriorEquipment:Electricity:Zone:FLOOR 4-6 PATIENT 2,hourly; !- [J]
Output:Meter:Cumulative,InteriorEquipment:Electricity:Zone:FLOOR 4-6 PATIENT 2,hourly; !- [J]
Output:Meter,InteriorEquipment:Electricity:Zone:FLOOR 4-6 PATIENT 3,hourly; !- [J]
Output:Meter:Cumulative,InteriorEquipment:Electricity:Zone:FLOOR 4-6 PATIENT 3,hourly; !- [J]
Output:Meter,InteriorEquipment:Electricity:Zone:FLOOR 4-6 PATIENT 4,hourly; !- [J]
Output:Meter:Cumulative,InteriorEquipment:Electricity:Zone:FLOOR 4-6 PATIENT 4,hourly; !- [J]
Output:Meter,InteriorEquipment:Electricity:Zone:FLOOR 4-6 PATIENT CORRIDOR 1,hourly; !- [J]
Output:Meter:Cumulative,InteriorEquipment:Electricity:Zone:FLOOR 4-6 PATIENT CORRIDOR 1,hourly; !- [J]
Output:Meter,InteriorEquipment:Electricity:Zone:FLOOR 4-6 PATIENT CORRIDOR 2,hourly; !- [J]
Output:Meter:Cumulative,InteriorEquipment:Electricity:Zone:FLOOR 4-6 PATIENT CORRIDOR 2,hourly; !- [J]
Output:Meter,InteriorEquipment:Electricity:Zone:FLOOR 4-6 SUPPLY,hourly; !- [J]
Output:Meter:Cumulative,InteriorEquipment:Electricity:Zone:FLOOR 4-6 SUPPLY,hourly; !- [J]
Output:Meter,InteriorEquipment:Electricity:Zone:FLOOR 7 CLEAN,hourly; !- [J]
Output:Meter:Cumulative,InteriorEquipment:Electricity:Zone:FLOOR 7 CLEAN,hourly; !- [J]
Output:Meter,InteriorEquipment:Electricity:Zone:FLOOR 7 ELEVATOR,hourly; !- [J]
Output:Meter:Cumulative,InteriorEquipment:Electricity:Zone:FLOOR 7 ELEVATOR,hourly; !- [J]
Output:Meter,InteriorEquipment:Electricity:Zone:FLOOR 7 NURSE STATION,hourly; !- [J]
Output:Meter:Cumulative,InteriorEquipment:Electricity:Zone:FLOOR 7 NURSE STATION,hourly; !- [J]
Output:Meter,InteriorEquipment:Electricity:Zone:FLOOR 7 OFFICE,hourly; !- [J]
Output:Meter:Cumulative,InteriorEquipment:Electricity:Zone:FLOOR 7 OFFICE,hourly; !- [J]
Output:Meter,InteriorEquipment:Electricity:Zone:FLOOR 7 PATIENT 1,hourly; !- [J]
Output:Meter:Cumulative,InteriorEquipment:Electricity:Zone:FLOOR 7 PATIENT 1,hourly; !- [J]
Output:Meter,InteriorEquipment:Electricity:Zone:FLOOR 7 PATIENT 2,hourly; !- [J]
Output:Meter:Cumulative,InteriorEquipment:Electricity:Zone:FLOOR 7 PATIENT 2,hourly; !- [J]
Output:Meter,InteriorEquipment:Electricity:Zone:FLOOR 7 PATIENT 3,hourly; !- [J]
Output:Meter:Cumulative,InteriorEquipment:Electricity:Zone:FLOOR 7 PATIENT 3,hourly; !- [J]
Output:Meter,InteriorEquipment:Electricity:Zone:FLOOR 7 PATIENT 4,hourly; !- [J]
Output:Meter:Cumulative,InteriorEquipment:Electricity:Zone:FLOOR 7 PATIENT 4,hourly; !- [J]
Output:Meter,InteriorEquipment:Electricity:Zone:FLOOR 7 PATIENT CORRIDOR 1,hourly; !- [J]
Output:Meter:Cumulative,InteriorEquipment:Electricity:Zone:FLOOR 7 PATIENT CORRIDOR 1,hourly; !- [J]
Output:Meter,InteriorEquipment:Electricity:Zone:FLOOR 7 PATIENT CORRIDOR 2,hourly; !- [J]
Output:Meter:Cumulative,InteriorEquipment:Electricity:Zone:FLOOR 7 PATIENT CORRIDOR 2,hourly; !- [J]
Output:Meter,InteriorEquipment:Electricity:Zone:FLOOR 7 SUPPLY,hourly; !- [J]
Output:Meter:Cumulative,InteriorEquipment:Electricity:Zone:FLOOR 7 SUPPLY,hourly; !- [J]
Output:Meter,InteriorEquipment:Electricity:Zone:MOB FLOOR 1 CORE,hourly; !- [J]
Output:Meter:Cumulative,InteriorEquipment:Electricity:Zone:MOB FLOOR 1 CORE,hourly; !- [J]
Output:Meter,InteriorEquipment:Electricity:Zone:MOB FLOOR 1 PERIMETER 1,hourly; !- [J]
Output:Meter:Cumulative,InteriorEquipment:Electricity:Zone:MOB FLOOR 1 PERIMETER 1,hourly; !- [J]
Output:Meter,InteriorEquipment:Electricity:Zone:MOB FLOOR 1 PERIMETER 2,hourly; !- [J]
Output:Meter:Cumulative,InteriorEquipment:Electricity:Zone:MOB FLOOR 1 PERIMETER 2,hourly; !- [J]
Output:Meter,InteriorEquipment:Electricity:Zone:MOB FLOOR 1 PERIMETER 3,hourly; !- [J]
Output:Meter:Cumulative,InteriorEquipment:Electricity:Zone:MOB FLOOR 1 PERIMETER 3,hourly; !- [J]
Output:Meter,InteriorEquipment:Electricity:Zone:MOB FLOOR 2-4 CORE,hourly; !- [J]
Output:Meter:Cumulative,InteriorEquipment:Electricity:Zone:MOB FLOOR 2-4 CORE,hourly; !- [J]
Output:Meter,InteriorEquipment:Electricity:Zone:MOB FLOOR 2-4 PERIMETER 1,hourly; !- [J]
Output:Meter:Cumulative,InteriorEquipment:Electricity:Zone:MOB FLOOR 2-4 PERIMETER 1,hourly; !- [J]
Output:Meter,InteriorEquipment:Electricity:Zone:MOB FLOOR 2-4 PERIMETER 2,hourly; !- [J]
Output:Meter:Cumulative,InteriorEquipment:Electricity:Zone:MOB FLOOR 2-4 PERIMETER 2,hourly; !- [J]
Output:Meter,InteriorEquipment:Electricity:Zone:MOB FLOOR 2-4 PERIMETER 3,hourly; !- [J]
Output:Meter:Cumulative,InteriorEquipment:Electricity:Zone:MOB FLOOR 2-4 PERIMETER 3,hourly; !- [J]
Output:Meter,InteriorEquipment:Electricity:Zone:MOB FLOOR 2-4 PERIMETER 4,hourly; !- [J]
Output:Meter:Cumulative,InteriorEquipment:Electricity:Zone:MOB FLOOR 2-4 PERIMETER 4,hourly; !- [J]
Output:Meter,InteriorEquipment:Electricity:Zone:MOB FLOOR 5 CORE,hourly; !- [J]
Output:Meter:Cumulative,InteriorEquipment:Electricity:Zone:MOB FLOOR 5 CORE,hourly; !- [J]
Output:Meter,InteriorEquipment:Electricity:Zone:MOB FLOOR 5 PERIMETER 1,hourly; !- [J]
Output:Meter:Cumulative,InteriorEquipment:Electricity:Zone:MOB FLOOR 5 PERIMETER 1,hourly; !- [J]
Output:Meter,InteriorEquipment:Electricity:Zone:MOB FLOOR 5 PERIMETER 2,hourly; !- [J]
Output:Meter:Cumulative,InteriorEquipment:Electricity:Zone:MOB FLOOR 5 PERIMETER 2,hourly; !- [J]
Output:Meter,InteriorEquipment:Electricity:Zone:MOB FLOOR 5 PERIMETER 3,hourly; !- [J]
Output:Meter:Cumulative,InteriorEquipment:Electricity:Zone:MOB FLOOR 5 PERIMETER 3,hourly; !- [J]
Output:Meter,InteriorEquipment:Electricity:Zone:MOB FLOOR 5 PERIMETER 4,hourly; !- [J]
Output:Meter:Cumulative,InteriorEquipment:Electricity:Zone:MOB FLOOR 5 PERIMETER 4,hourly; !- [J]
Output:Meter,Gas:Facility,hourly; !- [J]
Output:Meter:Cumulative,Gas:Facility,hourly; !- [J]
Output:Meter,Gas:Building,hourly; !- [J]
Output:Meter:Cumulative,Gas:Building,hourly; !- [J]
Output:Meter,Gas:Zone:FLOOR 1 FOOD STORAGE,hourly; !- [J]
Output:Meter:Cumulative,Gas:Zone:FLOOR 1 FOOD STORAGE,hourly; !- [J]
Output:Meter,InteriorEquipment:Gas,hourly; !- [J]
Output:Meter:Cumulative,InteriorEquipment:Gas,hourly; !- [J]
Output:Meter,InteriorEquipment:Gas:Zone:FLOOR 1 FOOD STORAGE,hourly; !- [J]
Output:Meter:Cumulative,InteriorEquipment:Gas:Zone:FLOOR 1 FOOD STORAGE,hourly; !- [J]
Output:Meter,General:InteriorEquipment:Gas,hourly; !- [J]
Output:Meter:Cumulative,General:InteriorEquipment:Gas,hourly; !- [J]
Output:Meter,Gas:Zone:FLOOR 1 KITCHEN,hourly; !- [J]
Output:Meter:Cumulative,Gas:Zone:FLOOR 1 KITCHEN,hourly; !- [J]
Output:Meter,InteriorEquipment:Gas:Zone:FLOOR 1 KITCHEN,hourly; !- [J]
Output:Meter:Cumulative,InteriorEquipment:Gas:Zone:FLOOR 1 KITCHEN,hourly; !- [J]
Output:Meter,Gas:Zone:FLOOR 1 LAUNDRY,hourly; !- [J]
Output:Meter:Cumulative,Gas:Zone:FLOOR 1 LAUNDRY,hourly; !- [J]
Output:Meter,InteriorEquipment:Gas:Zone:FLOOR 1 LAUNDRY,hourly; !- [J]
Output:Meter:Cumulative,InteriorEquipment:Gas:Zone:FLOOR 1 LAUNDRY,hourly; !- [J]
Output:Meter,Gas:Zone:FLOOR 2 STERILIZING,hourly; !- [J]
Output:Meter:Cumulative,Gas:Zone:FLOOR 2 STERILIZING,hourly; !- [J]
Output:Meter,InteriorEquipment:Gas:Zone:FLOOR 2 STERILIZING,hourly; !- [J]
Output:Meter:Cumulative,InteriorEquipment:Gas:Zone:FLOOR 2 STERILIZING,hourly; !- [J]
Output:Meter,EnergyTransfer:Facility,hourly; !- [J]
Output:Meter:Cumulative,EnergyTransfer:Facility,hourly; !- [J]
Output:Meter,EnergyTransfer:Building,hourly; !- [J]
Output:Meter:Cumulative,EnergyTransfer:Building,hourly; !- [J]
Output:Meter,EnergyTransfer:Zone:FLOOR 1 CAFE,hourly; !- [J]
Output:Meter:Cumulative,EnergyTransfer:Zone:FLOOR 1 CAFE,hourly; !- [J]
Output:Meter,Refrigeration:EnergyTransfer,hourly; !- [J]
Output:Meter:Cumulative,Refrigeration:EnergyTransfer,hourly; !- [J]
Output:Meter,Refrigeration:EnergyTransfer:Zone:FLOOR 1 CAFE,hourly; !- [J]
Output:Meter:Cumulative,Refrigeration:EnergyTransfer:Zone:FLOOR 1 CAFE,hourly; !- [J]
Output:Meter,Refrigeration:Electricity,hourly; !- [J]
Output:Meter:Cumulative,Refrigeration:Electricity,hourly; !- [J]
Output:Meter,Refrigeration:Electricity:Zone:FLOOR 1 CAFE,hourly; !- [J]
Output:Meter:Cumulative,Refrigeration:Electricity:Zone:FLOOR 1 CAFE,hourly; !- [J]
Output:Meter,General:Refrigeration:Electricity,hourly; !- [J]
Output:Meter:Cumulative,General:Refrigeration:Electricity,hourly; !- [J]
Output:Meter,Electricity:Zone:,hourly; !- [J]
Output:Meter:Cumulative,Electricity:Zone:,hourly; !- [J]
Output:Meter,Refrigeration:Electricity:Zone:,hourly; !- [J]
Output:Meter:Cumulative,Refrigeration:Electricity:Zone:,hourly; !- [J]
Output:Meter,Electricity:Plant,hourly; !- [J]
Output:Meter:Cumulative,Electricity:Plant,hourly; !- [J]
Output:Meter,PlantLoopHeatingDemand:Facility,hourly; !- [J]
Output:Meter:Cumulative,PlantLoopHeatingDemand:Facility,hourly; !- [J]
Output:Meter,PlantLoopHeatingDemand:Plant,hourly; !- [J]
Output:Meter:Cumulative,PlantLoopHeatingDemand:Plant,hourly; !- [J]
Output:Meter,WaterSystems:PlantLoopHeatingDemand,hourly; !- [J]
Output:Meter:Cumulative,WaterSystems:PlantLoopHeatingDemand,hourly; !- [J]
Output:Meter,Water Heater:WaterSystems:PlantLoopHeatingDemand,hourly; !- [J]
Output:Meter:Cumulative,Water Heater:WaterSystems:PlantLoopHeatingDemand,hourly; !- [J]
Output:Meter,Gas:Plant,hourly; !- [J]
Output:Meter:Cumulative,Gas:Plant,hourly; !- [J]
Output:Meter,WaterSystems:Gas,hourly; !- [J]
Output:Meter:Cumulative,WaterSystems:Gas,hourly; !- [J]
Output:Meter,Water Heater:WaterSystems:Gas,hourly; !- [J]
Output:Meter:Cumulative,Water Heater:WaterSystems:Gas,hourly; !- [J]
Output:Meter,Water:Facility,hourly; !- [m3]
Output:Meter:Cumulative,Water:Facility,hourly; !- [m3]
Output:Meter,Water:Plant,hourly; !- [m3]
Output:Meter:Cumulative,Water:Plant,hourly; !- [m3]
Output:Meter,WaterSystems:Water,hourly; !- [m3]
Output:Meter:Cumulative,WaterSystems:Water,hourly; !- [m3]
Output:Meter,Water Heater:WaterSystems:Water,hourly; !- [m3]
Output:Meter:Cumulative,Water Heater:WaterSystems:Water,hourly; !- [m3]
Output:Meter,MainsWater:Facility,hourly; !- [m3]
Output:Meter:Cumulative,MainsWater:Facility,hourly; !- [m3]
Output:Meter,MainsWater:Plant,hourly; !- [m3]
Output:Meter:Cumulative,MainsWater:Plant,hourly; !- [m3]
Output:Meter,WaterSystems:MainsWater,hourly; !- [m3]
Output:Meter:Cumulative,WaterSystems:MainsWater,hourly; !- [m3]
Output:Meter,Water Heater:WaterSystems:MainsWater,hourly; !- [m3]
Output:Meter:Cumulative,Water Heater:WaterSystems:MainsWater,hourly; !- [m3]
Output:Meter,Heating:EnergyTransfer,hourly; !- [J]
Output:Meter:Cumulative,Heating:EnergyTransfer,hourly; !- [J]
Output:Meter,Heating:EnergyTransfer:Zone:FLOOR 1 CAFE,hourly; !- [J]
Output:Meter:Cumulative,Heating:EnergyTransfer:Zone:FLOOR 1 CAFE,hourly; !- [J]
Output:Meter,Cooling:EnergyTransfer,hourly; !- [J]
Output:Meter:Cumulative,Cooling:EnergyTransfer,hourly; !- [J]
Output:Meter,Cooling:EnergyTransfer:Zone:FLOOR 1 CAFE,hourly; !- [J]
Output:Meter:Cumulative,Cooling:EnergyTransfer:Zone:FLOOR 1 CAFE,hourly; !- [J]
Output:Meter,EnergyTransfer:Zone:FLOOR 1 CLEAN,hourly; !- [J]
Output:Meter:Cumulative,EnergyTransfer:Zone:FLOOR 1 CLEAN,hourly; !- [J]
Output:Meter,Heating:EnergyTransfer:Zone:FLOOR 1 CLEAN,hourly; !- [J]
Output:Meter:Cumulative,Heating:EnergyTransfer:Zone:FLOOR 1 CLEAN,hourly; !- [J]
Output:Meter,Cooling:EnergyTransfer:Zone:FLOOR 1 CLEAN,hourly; !- [J]
Output:Meter:Cumulative,Cooling:EnergyTransfer:Zone:FLOOR 1 CLEAN,hourly; !- [J]
Output:Meter,EnergyTransfer:Zone:FLOOR 1 CONFERENCE,hourly; !- [J]
Output:Meter:Cumulative,EnergyTransfer:Zone:FLOOR 1 CONFERENCE,hourly; !- [J]
Output:Meter,Heating:EnergyTransfer:Zone:FLOOR 1 CONFERENCE,hourly; !- [J]
Output:Meter:Cumulative,Heating:EnergyTransfer:Zone:FLOOR 1 CONFERENCE,hourly; !- [J]
Output:Meter,Cooling:EnergyTransfer:Zone:FLOOR 1 CONFERENCE,hourly; !- [J]
Output:Meter:Cumulative,Cooling:EnergyTransfer:Zone:FLOOR 1 CONFERENCE,hourly; !- [J]
Output:Meter,EnergyTransfer:Zone:FLOOR 1 DINING,hourly; !- [J]
Output:Meter:Cumulative,EnergyTransfer:Zone:FLOOR 1 DINING,hourly; !- [J]
Output:Meter,Heating:EnergyTransfer:Zone:FLOOR 1 DINING,hourly; !- [J]
Output:Meter:Cumulative,Heating:EnergyTransfer:Zone:FLOOR 1 DINING,hourly; !- [J]
Output:Meter,Cooling:EnergyTransfer:Zone:FLOOR 1 DINING,hourly; !- [J]
Output:Meter:Cumulative,Cooling:EnergyTransfer:Zone:FLOOR 1 DINING,hourly; !- [J]
Output:Meter,EnergyTransfer:Zone:FLOOR 1 ELEVATOR,hourly; !- [J]
Output:Meter:Cumulative,EnergyTransfer:Zone:FLOOR 1 ELEVATOR,hourly; !- [J]
Output:Meter,Heating:EnergyTransfer:Zone:FLOOR 1 ELEVATOR,hourly; !- [J]
Output:Meter:Cumulative,Heating:EnergyTransfer:Zone:FLOOR 1 ELEVATOR,hourly; !- [J]
Output:Meter,Cooling:EnergyTransfer:Zone:FLOOR 1 ELEVATOR,hourly; !- [J]
Output:Meter:Cumulative,Cooling:EnergyTransfer:Zone:FLOOR 1 ELEVATOR,hourly; !- [J]
Output:Meter,EnergyTransfer:Zone:FLOOR 1 EXAM,hourly; !- [J]
Output:Meter:Cumulative,EnergyTransfer:Zone:FLOOR 1 EXAM,hourly; !- [J]
Output:Meter,Heating:EnergyTransfer:Zone:FLOOR 1 EXAM,hourly; !- [J]
Output:Meter:Cumulative,Heating:EnergyTransfer:Zone:FLOOR 1 EXAM,hourly; !- [J]
Output:Meter,Cooling:EnergyTransfer:Zone:FLOOR 1 EXAM,hourly; !- [J]
Output:Meter:Cumulative,Cooling:EnergyTransfer:Zone:FLOOR 1 EXAM,hourly; !- [J]
Output:Meter,EnergyTransfer:Zone:FLOOR 1 FOOD STORAGE,hourly; !- [J]
Output:Meter:Cumulative,EnergyTransfer:Zone:FLOOR 1 FOOD STORAGE,hourly; !- [J]
Output:Meter,Heating:EnergyTransfer:Zone:FLOOR 1 FOOD STORAGE,hourly; !- [J]
Output:Meter:Cumulative,Heating:EnergyTransfer:Zone:FLOOR 1 FOOD STORAGE,hourly; !- [J]
Output:Meter,Cooling:EnergyTransfer:Zone:FLOOR 1 FOOD STORAGE,hourly; !- [J]
Output:Meter:Cumulative,Cooling:EnergyTransfer:Zone:FLOOR 1 FOOD STORAGE,hourly; !- [J]
Output:Meter,EnergyTransfer:Zone:FLOOR 1 GAS STORAGE,hourly; !- [J]
Output:Meter:Cumulative,EnergyTransfer:Zone:FLOOR 1 GAS STORAGE,hourly; !- [J]
Output:Meter,Heating:EnergyTransfer:Zone:FLOOR 1 GAS STORAGE,hourly; !- [J]
Output:Meter:Cumulative,Heating:EnergyTransfer:Zone:FLOOR 1 GAS STORAGE,hourly; !- [J]
Output:Meter,Cooling:EnergyTransfer:Zone:FLOOR 1 GAS STORAGE,hourly; !- [J]
Output:Meter:Cumulative,Cooling:EnergyTransfer:Zone:FLOOR 1 GAS STORAGE,hourly; !- [J]
Output:Meter,EnergyTransfer:Zone:FLOOR 1 IMAGING,hourly; !- [J]
Output:Meter:Cumulative,EnergyTransfer:Zone:FLOOR 1 IMAGING,hourly; !- [J]
Output:Meter,Heating:EnergyTransfer:Zone:FLOOR 1 IMAGING,hourly; !- [J]
Output:Meter:Cumulative,Heating:EnergyTransfer:Zone:FLOOR 1 IMAGING,hourly; !- [J]
Output:Meter,Cooling:EnergyTransfer:Zone:FLOOR 1 IMAGING,hourly; !- [J]
Output:Meter:Cumulative,Cooling:EnergyTransfer:Zone:FLOOR 1 IMAGING,hourly; !- [J]
Output:Meter,EnergyTransfer:Zone:FLOOR 1 KITCHEN,hourly; !- [J]
Output:Meter:Cumulative,EnergyTransfer:Zone:FLOOR 1 KITCHEN,hourly; !- [J]
Output:Meter,Heating:EnergyTransfer:Zone:FLOOR 1 KITCHEN,hourly; !- [J]
Output:Meter:Cumulative,Heating:EnergyTransfer:Zone:FLOOR 1 KITCHEN,hourly; !- [J]
Output:Meter,Cooling:EnergyTransfer:Zone:FLOOR 1 KITCHEN,hourly; !- [J]
Output:Meter:Cumulative,Cooling:EnergyTransfer:Zone:FLOOR 1 KITCHEN,hourly; !- [J]
Output:Meter,EnergyTransfer:Zone:FLOOR 1 LAB 1,hourly; !- [J]
Output:Meter:Cumulative,EnergyTransfer:Zone:FLOOR 1 LAB 1,hourly; !- [J]
Output:Meter,Heating:EnergyTransfer:Zone:FLOOR 1 LAB 1,hourly; !- [J]
Output:Meter:Cumulative,Heating:EnergyTransfer:Zone:FLOOR 1 LAB 1,hourly; !- [J]
Output:Meter,Cooling:EnergyTransfer:Zone:FLOOR 1 LAB 1,hourly; !- [J]
Output:Meter:Cumulative,Cooling:EnergyTransfer:Zone:FLOOR 1 LAB 1,hourly; !- [J]
Output:Meter,EnergyTransfer:Zone:FLOOR 1 LAB 2,hourly; !- [J]
Output:Meter:Cumulative,EnergyTransfer:Zone:FLOOR 1 LAB 2,hourly; !- [J]
Output:Meter,Heating:EnergyTransfer:Zone:FLOOR 1 LAB 2,hourly; !- [J]
Output:Meter:Cumulative,Heating:EnergyTransfer:Zone:FLOOR 1 LAB 2,hourly; !- [J]
Output:Meter,Cooling:EnergyTransfer:Zone:FLOOR 1 LAB 2,hourly; !- [J]
Output:Meter:Cumulative,Cooling:EnergyTransfer:Zone:FLOOR 1 LAB 2,hourly; !- [J]
Output:Meter,EnergyTransfer:Zone:FLOOR 1 LAUNDRY,hourly; !- [J]
Output:Meter:Cumulative,EnergyTransfer:Zone:FLOOR 1 LAUNDRY,hourly; !- [J]
Output:Meter,Heating:EnergyTransfer:Zone:FLOOR 1 LAUNDRY,hourly; !- [J]
Output:Meter:Cumulative,Heating:EnergyTransfer:Zone:FLOOR 1 LAUNDRY,hourly; !- [J]
Output:Meter,Cooling:EnergyTransfer:Zone:FLOOR 1 LAUNDRY,hourly; !- [J]
Output:Meter:Cumulative,Cooling:EnergyTransfer:Zone:FLOOR 1 LAUNDRY,hourly; !- [J]
Output:Meter,EnergyTransfer:Zone:FLOOR 1 LOBBY,hourly; !- [J]
Output:Meter:Cumulative,EnergyTransfer:Zone:FLOOR 1 LOBBY,hourly; !- [J]
Output:Meter,Heating:EnergyTransfer:Zone:FLOOR 1 LOBBY,hourly; !- [J]
Output:Meter:Cumulative,Heating:EnergyTransfer:Zone:FLOOR 1 LOBBY,hourly; !- [J]
Output:Meter,Cooling:EnergyTransfer:Zone:FLOOR 1 LOBBY,hourly; !- [J]
Output:Meter:Cumulative,Cooling:EnergyTransfer:Zone:FLOOR 1 LOBBY,hourly; !- [J]
Output:Meter,EnergyTransfer:Zone:FLOOR 1 LOUNGE,hourly; !- [J]
Output:Meter:Cumulative,EnergyTransfer:Zone:FLOOR 1 LOUNGE,hourly; !- [J]
Output:Meter,Heating:EnergyTransfer:Zone:FLOOR 1 LOUNGE,hourly; !- [J]
Output:Meter:Cumulative,Heating:EnergyTransfer:Zone:FLOOR 1 LOUNGE,hourly; !- [J]
Output:Meter,Cooling:EnergyTransfer:Zone:FLOOR 1 LOUNGE,hourly; !- [J]
Output:Meter:Cumulative,Cooling:EnergyTransfer:Zone:FLOOR 1 LOUNGE,hourly; !- [J]
Output:Meter,EnergyTransfer:Zone:FLOOR 1 MECH 1,hourly; !- [J]
Output:Meter:Cumulative,EnergyTransfer:Zone:FLOOR 1 MECH 1,hourly; !- [J]
Output:Meter,Heating:EnergyTransfer:Zone:FLOOR 1 MECH 1,hourly; !- [J]
Output:Meter:Cumulative,Heating:EnergyTransfer:Zone:FLOOR 1 MECH 1,hourly; !- [J]
Output:Meter,Cooling:EnergyTransfer:Zone:FLOOR 1 MECH 1,hourly; !- [J]
Output:Meter:Cumulative,Cooling:EnergyTransfer:Zone:FLOOR 1 MECH 1,hourly; !- [J]
Output:Meter,EnergyTransfer:Zone:FLOOR 1 MECH 2,hourly; !- [J]
Output:Meter:Cumulative,EnergyTransfer:Zone:FLOOR 1 MECH 2,hourly; !- [J]
Output:Meter,Heating:EnergyTransfer:Zone:FLOOR 1 MECH 2,hourly; !- [J]
Output:Meter:Cumulative,Heating:EnergyTransfer:Zone:FLOOR 1 MECH 2,hourly; !- [J]
Output:Meter,Cooling:EnergyTransfer:Zone:FLOOR 1 MECH 2,hourly; !- [J]
Output:Meter:Cumulative,Cooling:EnergyTransfer:Zone:FLOOR 1 MECH 2,hourly; !- [J]
Output:Meter,EnergyTransfer:Zone:FLOOR 1 OFFICE 1,hourly; !- [J]
Output:Meter:Cumulative,EnergyTransfer:Zone:FLOOR 1 OFFICE 1,hourly; !- [J]
Output:Meter,Heating:EnergyTransfer:Zone:FLOOR 1 OFFICE 1,hourly; !- [J]
Output:Meter:Cumulative,Heating:EnergyTransfer:Zone:FLOOR 1 OFFICE 1,hourly; !- [J]
Output:Meter,Cooling:EnergyTransfer:Zone:FLOOR 1 OFFICE 1,hourly; !- [J]
Output:Meter:Cumulative,Cooling:EnergyTransfer:Zone:FLOOR 1 OFFICE 1,hourly; !- [J]
Output:Meter,EnergyTransfer:Zone:FLOOR 1 OFFICE 2,hourly; !- [J]
Output:Meter:Cumulative,EnergyTransfer:Zone:FLOOR 1 OFFICE 2,hourly; !- [J]
Output:Meter,Heating:EnergyTransfer:Zone:FLOOR 1 OFFICE 2,hourly; !- [J]
Output:Meter:Cumulative,Heating:EnergyTransfer:Zone:FLOOR 1 OFFICE 2,hourly; !- [J]
Output:Meter,Cooling:EnergyTransfer:Zone:FLOOR 1 OFFICE 2,hourly; !- [J]
Output:Meter:Cumulative,Cooling:EnergyTransfer:Zone:FLOOR 1 OFFICE 2,hourly; !- [J]
Output:Meter,EnergyTransfer:Zone:FLOOR 1 OFFICE 3,hourly; !- [J]
Output:Meter:Cumulative,EnergyTransfer:Zone:FLOOR 1 OFFICE 3,hourly; !- [J]
Output:Meter,Heating:EnergyTransfer:Zone:FLOOR 1 OFFICE 3,hourly; !- [J]
Output:Meter:Cumulative,Heating:EnergyTransfer:Zone:FLOOR 1 OFFICE 3,hourly; !- [J]
Output:Meter,Cooling:EnergyTransfer:Zone:FLOOR 1 OFFICE 3,hourly; !- [J]
Output:Meter:Cumulative,Cooling:EnergyTransfer:Zone:FLOOR 1 OFFICE 3,hourly; !- [J]
Output:Meter,EnergyTransfer:Zone:FLOOR 1 OFFICE 3 PERIMETER 1,hourly; !- [J]
Output:Meter:Cumulative,EnergyTransfer:Zone:FLOOR 1 OFFICE 3 PERIMETER 1,hourly; !- [J]
Output:Meter,Heating:EnergyTransfer:Zone:FLOOR 1 OFFICE 3 PERIMETER 1,hourly; !- [J]
Output:Meter:Cumulative,Heating:EnergyTransfer:Zone:FLOOR 1 OFFICE 3 PERIMETER 1,hourly; !- [J]
Output:Meter,Cooling:EnergyTransfer:Zone:FLOOR 1 OFFICE 3 PERIMETER 1,hourly; !- [J]
Output:Meter:Cumulative,Cooling:EnergyTransfer:Zone:FLOOR 1 OFFICE 3 PERIMETER 1,hourly; !- [J]
Output:Meter,EnergyTransfer:Zone:FLOOR 1 OFFICE 3 PERIMETER 2,hourly; !- [J]
Output:Meter:Cumulative,EnergyTransfer:Zone:FLOOR 1 OFFICE 3 PERIMETER 2,hourly; !- [J]
Output:Meter,Heating:EnergyTransfer:Zone:FLOOR 1 OFFICE 3 PERIMETER 2,hourly; !- [J]
Output:Meter:Cumulative,Heating:EnergyTransfer:Zone:FLOOR 1 OFFICE 3 PERIMETER 2,hourly; !- [J]
Output:Meter,Cooling:EnergyTransfer:Zone:FLOOR 1 OFFICE 3 PERIMETER 2,hourly; !- [J]
Output:Meter:Cumulative,Cooling:EnergyTransfer:Zone:FLOOR 1 OFFICE 3 PERIMETER 2,hourly; !- [J]
Output:Meter,EnergyTransfer:Zone:FLOOR 1 OFFICE 3 PERIMETER 3,hourly; !- [J]
Output:Meter:Cumulative,EnergyTransfer:Zone:FLOOR 1 OFFICE 3 PERIMETER 3,hourly; !- [J]
Output:Meter,Heating:EnergyTransfer:Zone:FLOOR 1 OFFICE 3 PERIMETER 3,hourly; !- [J]
Output:Meter:Cumulative,Heating:EnergyTransfer:Zone:FLOOR 1 OFFICE 3 PERIMETER 3,hourly; !- [J]
Output:Meter,Cooling:EnergyTransfer:Zone:FLOOR 1 OFFICE 3 PERIMETER 3,hourly; !- [J]
Output:Meter:Cumulative,Cooling:EnergyTransfer:Zone:FLOOR 1 OFFICE 3 PERIMETER 3,hourly; !- [J]
Output:Meter,EnergyTransfer:Zone:FLOOR 1 PATIENT,hourly; !- [J]
Output:Meter:Cumulative,EnergyTransfer:Zone:FLOOR 1 PATIENT,hourly; !- [J]
Output:Meter,Heating:EnergyTransfer:Zone:FLOOR 1 PATIENT,hourly; !- [J]
Output:Meter:Cumulative,Heating:EnergyTransfer:Zone:FLOOR 1 PATIENT,hourly; !- [J]
Output:Meter,Cooling:EnergyTransfer:Zone:FLOOR 1 PATIENT,hourly; !- [J]
Output:Meter:Cumulative,Cooling:EnergyTransfer:Zone:FLOOR 1 PATIENT,hourly; !- [J]
Output:Meter,EnergyTransfer:Zone:FLOOR 1 PHARMACY,hourly; !- [J]
Output:Meter:Cumulative,EnergyTransfer:Zone:FLOOR 1 PHARMACY,hourly; !- [J]
Output:Meter,Heating:EnergyTransfer:Zone:FLOOR 1 PHARMACY,hourly; !- [J]
Output:Meter:Cumulative,Heating:EnergyTransfer:Zone:FLOOR 1 PHARMACY,hourly; !- [J]
Output:Meter,Cooling:EnergyTransfer:Zone:FLOOR 1 PHARMACY,hourly; !- [J]
Output:Meter:Cumulative,Cooling:EnergyTransfer:Zone:FLOOR 1 PHARMACY,hourly; !- [J]
Output:Meter,EnergyTransfer:Zone:FLOOR 1 PHYSICAL THERAPY,hourly; !- [J]
Output:Meter:Cumulative,EnergyTransfer:Zone:FLOOR 1 PHYSICAL THERAPY,hourly; !- [J]
Output:Meter,Heating:EnergyTransfer:Zone:FLOOR 1 PHYSICAL THERAPY,hourly; !- [J]
Output:Meter:Cumulative,Heating:EnergyTransfer:Zone:FLOOR 1 PHYSICAL THERAPY,hourly; !- [J]
Output:Meter,Cooling:EnergyTransfer:Zone:FLOOR 1 PHYSICAL THERAPY,hourly; !- [J]
Output:Meter:Cumulative,Cooling:EnergyTransfer:Zone:FLOOR 1 PHYSICAL THERAPY,hourly; !- [J]
Output:Meter,EnergyTransfer:Zone:FLOOR 1 RECEIVING,hourly; !- [J]
Output:Meter:Cumulative,EnergyTransfer:Zone:FLOOR 1 RECEIVING,hourly; !- [J]
Output:Meter,Heating:EnergyTransfer:Zone:FLOOR 1 RECEIVING,hourly; !- [J]
Output:Meter:Cumulative,Heating:EnergyTransfer:Zone:FLOOR 1 RECEIVING,hourly; !- [J]
Output:Meter,Cooling:EnergyTransfer:Zone:FLOOR 1 RECEIVING,hourly; !- [J]
Output:Meter:Cumulative,Cooling:EnergyTransfer:Zone:FLOOR 1 RECEIVING,hourly; !- [J]
Output:Meter,EnergyTransfer:Zone:FLOOR 1 RECEPTION,hourly; !- [J]
Output:Meter:Cumulative,EnergyTransfer:Zone:FLOOR 1 RECEPTION,hourly; !- [J]
Output:Meter,Heating:EnergyTransfer:Zone:FLOOR 1 RECEPTION,hourly; !- [J]
Output:Meter:Cumulative,Heating:EnergyTransfer:Zone:FLOOR 1 RECEPTION,hourly; !- [J]
Output:Meter,Cooling:EnergyTransfer:Zone:FLOOR 1 RECEPTION,hourly; !- [J]
Output:Meter:Cumulative,Cooling:EnergyTransfer:Zone:FLOOR 1 RECEPTION,hourly; !- [J]
Output:Meter,EnergyTransfer:Zone:FLOOR 1 SOIL,hourly; !- [J]
[...]
Output:Meter,Cooling:EnergyTransfer:Zone:MOB FLOOR 2-4 PERIMETER 2,hourly; !- [J]
Output:Meter:Cumulative,Cooling:EnergyTransfer:Zone:MOB FLOOR 2-4 PERIMETER 2,hourly; !- [J]
Output:Meter,EnergyTransfer:Zone:MOB FLOOR 2-4 PERIMETER 3,hourly; !- [J]
Output:Meter:Cumulative,EnergyTransfer:Zone:MOB FLOOR 2-4 PERIMETER 3,hourly; !- [J]
Output:Meter,Heating:EnergyTransfer:Zone:MOB FLOOR 2-4 PERIMETER 3,hourly; !- [J]
Output:Meter:Cumulative,Heating:EnergyTransfer:Zone:MOB FLOOR 2-4 PERIMETER 3,hourly; !- [J]
Output:Meter,Cooling:EnergyTransfer:Zone:MOB FLOOR 2-4 PERIMETER 3,hourly; !- [J]
Output:Meter:Cumulative,Cooling:EnergyTransfer:Zone:MOB FLOOR 2-4 PERIMETER 3,hourly; !- [J]
Output:Meter,EnergyTransfer:Zone:MOB FLOOR 2-4 PERIMETER 4,hourly; !- [J]
Output:Meter:Cumulative,EnergyTransfer:Zone:MOB FLOOR 2-4 PERIMETER 4,hourly; !- [J]
Output:Meter,Heating:EnergyTransfer:Zone:MOB FLOOR 2-4 PERIMETER 4,hourly; !- [J]
Output:Meter:Cumulative,Heating:EnergyTransfer:Zone:MOB FLOOR 2-4 PERIMETER 4,hourly; !- [J]
Output:Meter,Cooling:EnergyTransfer:Zone:MOB FLOOR 2-4 PERIMETER 4,hourly; !- [J]
Output:Meter:Cumulative,Cooling:EnergyTransfer:Zone:MOB FLOOR 2-4 PERIMETER 4,hourly; !- [J]
Output:Meter,EnergyTransfer:Zone:MOB FLOOR 5 CORE,hourly; !- [J]
Output:Meter:Cumulative,EnergyTransfer:Zone:MOB FLOOR 5 CORE,hourly; !- [J]
Output:Meter,Heating:EnergyTransfer:Zone:MOB FLOOR 5 CORE,hourly; !- [J]
Output:Meter:Cumulative,Heating:EnergyTransfer:Zone:MOB FLOOR 5 CORE,hourly; !- [J]
Output:Meter,Cooling:EnergyTransfer:Zone:MOB FLOOR 5 CORE,hourly; !- [J]
Output:Meter:Cumulative,Cooling:EnergyTransfer:Zone:MOB FLOOR 5 CORE,hourly; !- [J]
Output:Meter,EnergyTransfer:Zone:MOB FLOOR 5 PERIMETER 1,hourly; !- [J]
Output:Meter:Cumulative,EnergyTransfer:Zone:MOB FLOOR 5 PERIMETER 1,hourly; !- [J]
Output:Meter,Heating:EnergyTransfer:Zone:MOB FLOOR 5 PERIMETER 1,hourly; !- [J]
Output:Meter:Cumulative,Heating:EnergyTransfer:Zone:MOB FLOOR 5 PERIMETER 1,hourly; !- [J]
Output:Meter,Cooling:EnergyTransfer:Zone:MOB FLOOR 5 PERIMETER 1,hourly; !- [J]
Output:Meter:Cumulative,Cooling:EnergyTransfer:Zone:MOB FLOOR 5 PERIMETER 1,hourly; !- [J]
Output:Meter,EnergyTransfer:Zone:MOB FLOOR 5 PERIMETER 2,hourly; !- [J]
Output:Meter:Cumulative,EnergyTransfer:Zone:MOB FLOOR 5 PERIMETER 2,hourly; !- [J]
Output:Meter,Heating:EnergyTransfer:Zone:MOB FLOOR 5 PERIMETER 2,hourly; !- [J]
Output:Meter:Cumulative,Heating:EnergyTransfer:Zone:MOB FLOOR 5 PERIMETER 2,hourly; !- [J]
Output:Meter,Cooling:EnergyTransfer:Zone:MOB FLOOR 5 PERIMETER 2,hourly; !- [J]
Output:Meter:Cumulative,Cooling:EnergyTransfer:Zone:MOB FLOOR 5 PERIMETER 2,hourly; !- [J]
Output:Meter,EnergyTransfer:Zone:MOB FLOOR 5 PERIMETER 3,hourly; !- [J]
Output:Meter:Cumulative,EnergyTransfer:Zone:MOB FLOOR 5 PERIMETER 3,hourly; !- [J]
Output:Meter,Heating:EnergyTransfer:Zone:MOB FLOOR 5 PERIMETER 3,hourly; !- [J]
Output:Meter:Cumulative,Heating:EnergyTransfer:Zone:MOB FLOOR 5 PERIMETER 3,hourly; !- [J]
Output:Meter,Cooling:EnergyTransfer:Zone:MOB FLOOR 5 PERIMETER 3,hourly; !- [J]
Output:Meter:Cumulative,Cooling:EnergyTransfer:Zone:MOB FLOOR 5 PERIMETER 3,hourly; !- [J]
Output:Meter,EnergyTransfer:Zone:MOB FLOOR 5 PERIMETER 4,hourly; !- [J]
Output:Meter:Cumulative,EnergyTransfer:Zone:MOB FLOOR 5 PERIMETER 4,hourly; !- [J]
Output:Meter,Heating:EnergyTransfer:Zone:MOB FLOOR 5 PERIMETER 4,hourly; !- [J]
Output:Meter:Cumulative,Heating:EnergyTransfer:Zone:MOB FLOOR 5 PERIMETER 4,hourly; !- [J]
Output:Meter,Cooling:EnergyTransfer:Zone:MOB FLOOR 5 PERIMETER 4,hourly; !- [J]
Output:Meter:Cumulative,Cooling:EnergyTransfer:Zone:MOB FLOOR 5 PERIMETER 4,hourly; !- [J]
Output:Meter,General:WaterSystems:Water,hourly; !- [m3]
Output:Meter:Cumulative,General:WaterSystems:Water,hourly; !- [m3]
Output:Meter,General:WaterSystems:MainsWater,hourly; !- [m3]
Output:Meter:Cumulative,General:WaterSystems:MainsWater,hourly; !- [m3]
Output:Meter,EnergyTransfer:Plant,hourly; !- [J]
Output:Meter:Cumulative,EnergyTransfer:Plant,hourly; !- [J]
Output:Meter,WaterSystems:EnergyTransfer,hourly; !- [J]
Output:Meter:Cumulative,WaterSystems:EnergyTransfer,hourly; !- [J]
Output:Meter,General:WaterSystems:EnergyTransfer,hourly; !- [J]
Output:Meter:Cumulative,General:WaterSystems:EnergyTransfer,hourly; !- [J]
Output:Meter,ElectricityPurchased:Facility,hourly; !- [J]
Output:Meter:Cumulative,ElectricityPurchased:Facility,hourly; !- [J]
Output:Meter,ElectricityPurchased:Plant,hourly; !- [J]
Output:Meter:Cumulative,ElectricityPurchased:Plant,hourly; !- [J]
Output:Meter,Cogeneration:ElectricityPurchased,hourly; !- [J]
Output:Meter:Cumulative,Cogeneration:ElectricityPurchased,hourly; !- [J]
Output:Meter,ElectricitySurplusSold:Facility,hourly; !- [J]
Output:Meter:Cumulative,ElectricitySurplusSold:Facility,hourly; !- [J]
Output:Meter,ElectricitySurplusSold:Plant,hourly; !- [J]
Output:Meter:Cumulative,ElectricitySurplusSold:Plant,hourly; !- [J]
Output:Meter,Cogeneration:ElectricitySurplusSold,hourly; !- [J]
Output:Meter:Cumulative,Cogeneration:ElectricitySurplusSold,hourly; !- [J]
Output:Meter,ElectricityNet:Facility,hourly; !- [J]
Output:Meter:Cumulative,ElectricityNet:Facility,hourly; !- [J]
Output:Meter,ElectricityNet:Plant,hourly; !- [J]
Output:Meter:Cumulative,ElectricityNet:Plant,hourly; !- [J]
Output:Meter,Cogeneration:ElectricityNet,hourly; !- [J]
Output:Meter:Cumulative,Cogeneration:ElectricityNet,hourly; !- [J]
Output:Meter,EnergyTransfer:HVAC,hourly; !- [J]
Output:Meter:Cumulative,EnergyTransfer:HVAC,hourly; !- [J]
Output:Meter,HeatingCoils:EnergyTransfer,hourly; !- [J]
Output:Meter:Cumulative,HeatingCoils:EnergyTransfer,hourly; !- [J]
Output:Meter,PlantLoopHeatingDemand:HVAC,hourly; !- [J]
Output:Meter:Cumulative,PlantLoopHeatingDemand:HVAC,hourly; !- [J]
Output:Meter,HeatingCoils:PlantLoopHeatingDemand,hourly; !- [J]
Output:Meter:Cumulative,HeatingCoils:PlantLoopHeatingDemand,hourly; !- [J]
Output:Meter,CoolingCoils:EnergyTransfer,hourly; !- [J]
Output:Meter:Cumulative,CoolingCoils:EnergyTransfer,hourly; !- [J]
Output:Meter,PlantLoopCoolingDemand:Facility,hourly; !- [J]
Output:Meter:Cumulative,PlantLoopCoolingDemand:Facility,hourly; !- [J]
Output:Meter,PlantLoopCoolingDemand:HVAC,hourly; !- [J]
Output:Meter:Cumulative,PlantLoopCoolingDemand:HVAC,hourly; !- [J]
Output:Meter,CoolingCoils:PlantLoopCoolingDemand,hourly; !- [J]
Output:Meter:Cumulative,CoolingCoils:PlantLoopCoolingDemand,hourly; !- [J]
Output:Meter,Electricity:HVAC,hourly; !- [J]
Output:Meter:Cumulative,Electricity:HVAC,hourly; !- [J]
Output:Meter,Fans:Electricity,hourly; !- [J]
Output:Meter:Cumulative,Fans:Electricity,hourly; !- [J]
Output:Meter,Fan Energy:Fans:Electricity,hourly; !- [J]
Output:Meter:Cumulative,Fan Energy:Fans:Electricity,hourly; !- [J]
Output:Meter,Zone Exhaust Fans:Fans:Electricity,hourly; !- [J]
Output:Meter:Cumulative,Zone Exhaust Fans:Fans:Electricity,hourly; !- [J]
Output:Meter,ExteriorLights:Electricity,hourly; !- [J]
Output:Meter:Cumulative,ExteriorLights:Electricity,hourly; !- [J]
Output:Meter,Exterior Facade Lighting:ExteriorLights:Electricity,hourly; !- [J]
Output:Meter:Cumulative,Exterior Facade Lighting:ExteriorLights:Electricity,hourly; !- [J]
Output:Meter,ExteriorEquipment:Electricity,hourly; !- [J]
Output:Meter:Cumulative,ExteriorEquipment:Electricity,hourly; !- [J]
Output:Meter,General:ExteriorEquipment:Electricity,hourly; !- [J]
Output:Meter:Cumulative,General:ExteriorEquipment:Electricity,hourly; !- [J]
Output:Meter,Water:HVAC,hourly; !- [m3]
Output:Meter:Cumulative,Water:HVAC,hourly; !- [m3]
Output:Meter,Humidifier:Water,hourly; !- [m3]
Output:Meter:Cumulative,Humidifier:Water,hourly; !- [m3]
Output:Meter,MainsWater:HVAC,hourly; !- [m3]
Output:Meter:Cumulative,MainsWater:HVAC,hourly; !- [m3]
Output:Meter,Humidifier:MainsWater,hourly; !- [m3]
Output:Meter:Cumulative,Humidifier:MainsWater,hourly; !- [m3]
Output:Meter,Humidifier:Electricity,hourly; !- [J]
Output:Meter:Cumulative,Humidifier:Electricity,hourly; !- [J]
Output:Meter,Boilers:EnergyTransfer,hourly; !- [J]
Output:Meter:Cumulative,Boilers:EnergyTransfer,hourly; !- [J]
Output:Meter,Heating:Gas,hourly; !- [J]
Output:Meter:Cumulative,Heating:Gas,hourly; !- [J]
Output:Meter,Boiler:Heating:Gas,hourly; !- [J]
Output:Meter:Cumulative,Boiler:Heating:Gas,hourly; !- [J]
Output:Meter,Heating:Electricity,hourly; !- [J]
Output:Meter:Cumulative,Heating:Electricity,hourly; !- [J]
Output:Meter,Boiler Parasitic:Heating:Electricity,hourly; !- [J]
Output:Meter:Cumulative,Boiler Parasitic:Heating:Electricity,hourly; !- [J]
Output:Meter,Cooling:Electricity,hourly; !- [J]
Output:Meter:Cumulative,Cooling:Electricity,hourly; !- [J]
Output:Meter,General:Cooling:Electricity,hourly; !- [J]
Output:Meter:Cumulative,General:Cooling:Electricity,hourly; !- [J]
Output:Meter,Chillers:EnergyTransfer,hourly; !- [J]
Output:Meter:Cumulative,Chillers:EnergyTransfer,hourly; !- [J]
Output:Meter,HeatRejection:EnergyTransfer,hourly; !- [J]
Output:Meter:Cumulative,HeatRejection:EnergyTransfer,hourly; !- [J]
Output:Meter,HeatRejection:Electricity,hourly; !- [J]
Output:Meter:Cumulative,HeatRejection:Electricity,hourly; !- [J]
Output:Meter,General:HeatRejection:Electricity,hourly; !- [J]
Output:Meter:Cumulative,General:HeatRejection:Electricity,hourly; !- [J]
Output:Meter,HeatRejection:Water,hourly; !- [m3]
Output:Meter:Cumulative,HeatRejection:Water,hourly; !- [m3]
Output:Meter,HeatRejection:MainsWater,hourly; !- [m3]
Output:Meter:Cumulative,HeatRejection:MainsWater,hourly; !- [m3]
Output:Meter,Pumps:Electricity,hourly; !- [J]
Output:Meter:Cumulative,Pumps:Electricity,hourly; !- [J]
Output:Meter,General:Pumps:Electricity,hourly; !- [J]
Output:Meter:Cumulative,General:Pumps:Electricity,hourly; !- [J]
Output:Meter,Source:Facility,hourly; !- [J]
Output:Meter:Cumulative,Source:Facility,hourly; !- [J]
Output:Meter,ElectricEmissions:Source,hourly; !- [J]
Output:Meter:Cumulative,ElectricEmissions:Source,hourly; !- [J]
Output:Meter,CO2:Facility,hourly; !- [kg]
Output:Meter:Cumulative,CO2:Facility,hourly; !- [kg]
Output:Meter,ElectricEmissions:CO2,hourly; !- [kg]
Output:Meter:Cumulative,ElectricEmissions:CO2,hourly; !- [kg]
Output:Meter,CO:Facility,hourly; !- [kg]
Output:Meter:Cumulative,CO:Facility,hourly; !- [kg]
Output:Meter,ElectricEmissions:CO,hourly; !- [kg]
Output:Meter:Cumulative,ElectricEmissions:CO,hourly; !- [kg]
Output:Meter,CH4:Facility,hourly; !- [kg]
Output:Meter:Cumulative,CH4:Facility,hourly; !- [kg]
Output:Meter,ElectricEmissions:CH4,hourly; !- [kg]
Output:Meter:Cumulative,ElectricEmissions:CH4,hourly; !- [kg]
Output:Meter,NOx:Facility,hourly; !- [kg]
Output:Meter:Cumulative,NOx:Facility,hourly; !- [kg]
Output:Meter,ElectricEmissions:NOx,hourly; !- [kg]
Output:Meter:Cumulative,ElectricEmissions:NOx,hourly; !- [kg]
Output:Meter,N2O:Facility,hourly; !- [kg]
Output:Meter:Cumulative,N2O:Facility,hourly; !- [kg]
Output:Meter,ElectricEmissions:N2O,hourly; !- [kg]
Output:Meter:Cumulative,ElectricEmissions:N2O,hourly; !- [kg]
Output:Meter,SO2:Facility,hourly; !- [kg]
Output:Meter:Cumulative,SO2:Facility,hourly; !- [kg]
Output:Meter,ElectricEmissions:SO2,hourly; !- [kg]
Output:Meter:Cumulative,ElectricEmissions:SO2,hourly; !- [kg]
Output:Meter,PM:Facility,hourly; !- [kg]
Output:Meter:Cumulative,PM:Facility,hourly; !- [kg]
Output:Meter,ElectricEmissions:PM,hourly; !- [kg]
Output:Meter:Cumulative,ElectricEmissions:PM,hourly; !- [kg]
Output:Meter,PM10:Facility,hourly; !- [kg]
Output:Meter:Cumulative,PM10:Facility,hourly; !- [kg]
Output:Meter,ElectricEmissions:PM10,hourly; !- [kg]
Output:Meter:Cumulative,ElectricEmissions:PM10,hourly; !- [kg]
Output:Meter,PM2.5:Facility,hourly; !- [kg]
Output:Meter:Cumulative,PM2.5:Facility,hourly; !- [kg]
Output:Meter,ElectricEmissions:PM2.5,hourly; !- [kg]
Output:Meter:Cumulative,ElectricEmissions:PM2.5,hourly; !- [kg]
Output:Meter,NH3:Facility,hourly; !- [kg]
Output:Meter:Cumulative,NH3:Facility,hourly; !- [kg]
Output:Meter,ElectricEmissions:NH3,hourly; !- [kg]
Output:Meter:Cumulative,ElectricEmissions:NH3,hourly; !- [kg]
Output:Meter,NMVOC:Facility,hourly; !- [kg]
Output:Meter:Cumulative,NMVOC:Facility,hourly; !- [kg]
Output:Meter,ElectricEmissions:NMVOC,hourly; !- [kg]
Output:Meter:Cumulative,ElectricEmissions:NMVOC,hourly; !- [kg]
Output:Meter,Hg:Facility,hourly; !- [kg]
Output:Meter:Cumulative,Hg:Facility,hourly; !- [kg]
Output:Meter,ElectricEmissions:Hg,hourly; !- [kg]
Output:Meter:Cumulative,ElectricEmissions:Hg,hourly; !- [kg]
Output:Meter,Pb:Facility,hourly; !- [kg]
Output:Meter:Cumulative,Pb:Facility,hourly; !- [kg]
Output:Meter,ElectricEmissions:Pb,hourly; !- [kg]
Output:Meter:Cumulative,ElectricEmissions:Pb,hourly; !- [kg]
Output:Meter,WaterEnvironmentalFactors:Facility,hourly; !- [L]
Output:Meter:Cumulative,WaterEnvironmentalFactors:Facility,hourly; !- [L]
Output:Meter,ElectricEmissions:WaterEnvironmentalFactors,hourly; !- [L]
Output:Meter:Cumulative,ElectricEmissions:WaterEnvironmentalFactors,hourly; !- [L]
Output:Meter,Nuclear High:Facility,hourly; !- [kg]
Output:Meter:Cumulative,Nuclear High:Facility,hourly; !- [kg]
Output:Meter,ElectricEmissions:Nuclear High,hourly; !- [kg]
Output:Meter:Cumulative,ElectricEmissions:Nuclear High,hourly; !- [kg]
Output:Meter,Nuclear Low:Facility,hourly; !- [m3]
Output:Meter:Cumulative,Nuclear Low:Facility,hourly; !- [m3]
Output:Meter,ElectricEmissions:Nuclear Low,hourly; !- [m3]
Output:Meter:Cumulative,ElectricEmissions:Nuclear Low,hourly; !- [m3]
Output:Meter,PurchasedElectricEmissions:Source,hourly; !- [J]
Output:Meter:Cumulative,PurchasedElectricEmissions:Source,hourly; !- [J]
Output:Meter,SoldElectricEmissions:Source,hourly; !- [J]
Output:Meter:Cumulative,SoldElectricEmissions:Source,hourly; !- [J]
Output:Meter,NaturalGasEmissions:Source,hourly; !- [J]
Output:Meter:Cumulative,NaturalGasEmissions:Source,hourly; !- [J]
Output:Meter,NaturalGasEmissions:CO2,hourly; !- [kg]
Output:Meter:Cumulative,NaturalGasEmissions:CO2,hourly; !- [kg]
Output:Meter,NaturalGasEmissions:CO,hourly; !- [kg]
Output:Meter:Cumulative,NaturalGasEmissions:CO,hourly; !- [kg]
Output:Meter,NaturalGasEmissions:CH4,hourly; !- [kg]
Output:Meter:Cumulative,NaturalGasEmissions:CH4,hourly; !- [kg]
Output:Meter,NaturalGasEmissions:NOx,hourly; !- [kg]
Output:Meter:Cumulative,NaturalGasEmissions:NOx,hourly; !- [kg]
Output:Meter,NaturalGasEmissions:N2O,hourly; !- [kg]
Output:Meter:Cumulative,NaturalGasEmissions:N2O,hourly; !- [kg]
Output:Meter,NaturalGasEmissions:SO2,hourly; !- [kg]
Output:Meter:Cumulative,NaturalGasEmissions:SO2,hourly; !- [kg]
Output:Meter,NaturalGasEmissions:PM,hourly; !- [kg]
Output:Meter:Cumulative,NaturalGasEmissions:PM,hourly; !- [kg]
Output:Meter,NaturalGasEmissions:PM10,hourly; !- [kg]
Output:Meter:Cumulative,NaturalGasEmissions:PM10,hourly; !- [kg]
Output:Meter,NaturalGasEmissions:PM2.5,hourly; !- [kg]
Output:Meter:Cumulative,NaturalGasEmissions:PM2.5,hourly; !- [kg]
Output:Meter,NaturalGasEmissions:NH3,hourly; !- [kg]
Output:Meter:Cumulative,NaturalGasEmissions:NH3,hourly; !- [kg]
Output:Meter,NaturalGasEmissions:NMVOC,hourly; !- [kg]
Output:Meter:Cumulative,NaturalGasEmissions:NMVOC,hourly; !- [kg]
Output:Meter,NaturalGasEmissions:Hg,hourly; !- [kg]
Output:Meter:Cumulative,NaturalGasEmissions:Hg,hourly; !- [kg]
Output:Meter,NaturalGasEmissions:Pb,hourly; !- [kg]
Output:Meter:Cumulative,NaturalGasEmissions:Pb,hourly; !- [kg]
Output:Meter,NaturalGasEmissions:WaterEnvironmentalFactors,hourly; !- [L]
Output:Meter:Cumulative,NaturalGasEmissions:WaterEnvironmentalFactors,hourly; !- [L]
Output:Meter,NaturalGasEmissions:Nuclear High,hourly; !- [kg]
Output:Meter:Cumulative,NaturalGasEmissions:Nuclear High,hourly; !- [kg]
Output:Meter,NaturalGasEmissions:Nuclear Low,hourly; !- [m3]
Output:Meter:Cumulative,NaturalGasEmissions:Nuclear Low,hourly; !- [m3]
Output:Meter,FuelOil#1Emissions:Source,hourly; !- [J]
Output:Meter:Cumulative,FuelOil#1Emissions:Source,hourly; !- [J]
Output:Meter,FuelOil#1Emissions:CO2,hourly; !- [kg]
Output:Meter:Cumulative,FuelOil#1Emissions:CO2,hourly; !- [kg]
Output:Meter,FuelOil#1Emissions:CO,hourly; !- [kg]
Output:Meter:Cumulative,FuelOil#1Emissions:CO,hourly; !- [kg]
Output:Meter,FuelOil#1Emissions:CH4,hourly; !- [kg]
Output:Meter:Cumulative,FuelOil#1Emissions:CH4,hourly; !- [kg]
Output:Meter,FuelOil#1Emissions:NOx,hourly; !- [kg]
Output:Meter:Cumulative,FuelOil#1Emissions:NOx,hourly; !- [kg]
Output:Meter,FuelOil#1Emissions:N2O,hourly; !- [kg]
Output:Meter:Cumulative,FuelOil#1Emissions:N2O,hourly; !- [kg]
Output:Meter,FuelOil#1Emissions:SO2,hourly; !- [kg]
Output:Meter:Cumulative,FuelOil#1Emissions:SO2,hourly; !- [kg]
Output:Meter,FuelOil#1Emissions:PM,hourly; !- [kg]
Output:Meter:Cumulative,FuelOil#1Emissions:PM,hourly; !- [kg]
Output:Meter,FuelOil#1Emissions:PM10,hourly; !- [kg]
Output:Meter:Cumulative,FuelOil#1Emissions:PM10,hourly; !- [kg]
Output:Meter,FuelOil#1Emissions:PM2.5,hourly; !- [kg]
Output:Meter:Cumulative,FuelOil#1Emissions:PM2.5,hourly; !- [kg]
Output:Meter,FuelOil#1Emissions:NH3,hourly; !- [kg]
Output:Meter:Cumulative,FuelOil#1Emissions:NH3,hourly; !- [kg]
Output:Meter,FuelOil#1Emissions:NMVOC,hourly; !- [kg]
Output:Meter:Cumulative,FuelOil#1Emissions:NMVOC,hourly; !- [kg]
Output:Meter,FuelOil#1Emissions:Hg,hourly; !- [kg]
Output:Meter:Cumulative,FuelOil#1Emissions:Hg,hourly; !- [kg]
Output:Meter,FuelOil#1Emissions:Pb,hourly; !- [kg]
Output:Meter:Cumulative,FuelOil#1Emissions:Pb,hourly; !- [kg]
Output:Meter,FuelOil#1Emissions:WaterEnvironmentalFactors,hourly; !- [L]
Output:Meter:Cumulative,FuelOil#1Emissions:WaterEnvironmentalFactors,hourly; !- [L]
Output:Meter,FuelOil#1Emissions:Nuclear High,hourly; !- [kg]
Output:Meter:Cumulative,FuelOil#1Emissions:Nuclear High,hourly; !- [kg]
Output:Meter,FuelOil#1Emissions:Nuclear Low,hourly; !- [m3]
Output:Meter:Cumulative,FuelOil#1Emissions:Nuclear Low,hourly; !- [m3]
Output:Meter,PropaneEmissions:Source,hourly; !- [J]
Output:Meter:Cumulative,PropaneEmissions:Source,hourly; !- [J]
Output:Meter,PropaneEmissions:CO2,hourly; !- [kg]
Output:Meter:Cumulative,PropaneEmissions:CO2,hourly; !- [kg]
Output:Meter,PropaneEmissions:CO,hourly; !- [kg]
Output:Meter:Cumulative,PropaneEmissions:CO,hourly; !- [kg]
Output:Meter,PropaneEmissions:CH4,hourly; !- [kg]
Output:Meter:Cumulative,PropaneEmissions:CH4,hourly; !- [kg]
Output:Meter,PropaneEmissions:NOx,hourly; !- [kg]
Output:Meter:Cumulative,PropaneEmissions:NOx,hourly; !- [kg]
Output:Meter,PropaneEmissions:N2O,hourly; !- [kg]
Output:Meter:Cumulative,PropaneEmissions:N2O,hourly; !- [kg]
Output:Meter,PropaneEmissions:SO2,hourly; !- [kg]
Output:Meter:Cumulative,PropaneEmissions:SO2,hourly; !- [kg]
Output:Meter,PropaneEmissions:PM,hourly; !- [kg]
Output:Meter:Cumulative,PropaneEmissions:PM,hourly; !- [kg]
Output:Meter,PropaneEmissions:PM10,hourly; !- [kg]
Output:Meter:Cumulative,PropaneEmissions:PM10,hourly; !- [kg]
Output:Meter,PropaneEmissions:PM2.5,hourly; !- [kg]
Output:Meter:Cumulative,PropaneEmissions:PM2.5,hourly; !- [kg]
Output:Meter,PropaneEmissions:NH3,hourly; !- [kg]
Output:Meter:Cumulative,PropaneEmissions:NH3,hourly; !- [kg]
Output:Meter,PropaneEmissions:NMVOC,hourly; !- [kg]
Output:Meter:Cumulative,PropaneEmissions:NMVOC,hourly; !- [kg]
Output:Meter,PropaneEmissions:Hg,hourly; !- [kg]
Output:Meter:Cumulative,PropaneEmissions:Hg,hourly; !- [kg]
Output:Meter,PropaneEmissions:Pb,hourly; !- [kg]
Output:Meter:Cumulative,PropaneEmissions:Pb,hourly; !- [kg]
Output:Meter,PropaneEmissions:WaterEnvironmentalFactors,hourly; !- [L]
Output:Meter:Cumulative,PropaneEmissions:WaterEnvironmentalFactors,hourly; !- [L]
Output:Meter,PropaneEmissions:Nuclear High,hourly; !- [kg]
Output:Meter:Cumulative,PropaneEmissions:Nuclear High,hourly; !- [kg]
Output:Meter,PropaneEmissions:Nuclear Low,hourly; !- [m3]
Output:Meter:Cumulative,PropaneEmissions:Nuclear Low,hourly; !- [m3]
Output:Meter,Carbon Equivalent:Facility,hourly; !- [kg]
Output:Meter:Cumulative,Carbon Equivalent:Facility,hourly; !- [kg]
Output:Meter,CarbonEquivalentEmissions:Carbon Equivalent,hourly; !- [kg]
Output:Meter:Cumulative,CarbonEquivalentEmissions:Carbon Equivalent,hourly; !- [kg]
