Program Version,EnergyPlus, Version 9.2.0-921312fa1d, YMD=2020.06.07 16:16
! This file shows details about the branches, nodes, and other
! elements of the flow connections.
! This file is intended for use in "debugging" potential problems
! that may also be detected by the program, but may be more easily
! identified by "eye".
! This file is also intended to support software which draws a
! schematic diagram of the HVAC system.
! ===============================================================
! #Nodes,<Number of Unique Nodes>
 #Nodes,1420
! <Node>,<NodeNumber>,<Node Name>,<Node Fluid Type>,<# Times Node Referenced After Definition>
 Node,1,FLOOR 1 CAFE VAV BOX OUTLET NODE NAME,Air,4
 Node,2,FLOOR 1 CLEAN VAV BOX OUTLET NODE NAME,Air,4
 Node,3,FLOOR 1 CONFERENCE VAV BOX OUTLET NODE NAME,Air,4
 Node,4,FLOOR 1 DINING VAV BOX OUTLET NODE NAME,Air,4
 Node,5,FLOOR 1 ELEVATOR VAV BOX OUTLET NODE NAME,Air,4
 Node,6,FLOOR 1 EXAM VAV BOX OUTLET NODE NAME,Air,4
 Node,7,FLOOR 1 FOOD STORAGE VAV BOX OUTLET NODE NAME,Air,4
 Node,8,FLOOR 1 GAS STORAGE VAV BOX OUTLET NODE NAME,Air,4
 Node,9,FLOOR 1 GAS STORAGE EXHAUST FAN 1 INLET NODE,Air,2
 Node,10,FLOOR 1 IMAGING VAV BOX OUTLET NODE NAME,Air,4
 Node,11,FLOOR 1 KITCHEN VAV BOX OUTLET NODE NAME,Air,4
 Node,12,FLOOR 1 KITCHEN EXHAUST FAN 1 INLET NODE,Air,2
 Node,13,FLOOR 1 KITCHEN EXHAUST FAN 2 INLET NODE,Air,2
 Node,14,FLOOR 1 KITCHEN EXHAUST FAN 3 INLET NODE,Air,2
 Node,15,FLOOR 1 LAB 1 VAV BOX OUTLET NODE NAME,Air,4
 Node,16,FLOOR 1 LAB 2 VAV BOX OUTLET NODE NAME,Air,4
 Node,17,FLOOR 1 LAUNDRY VAV BOX OUTLET NODE NAME,Air,4
 Node,18,FLOOR 1 LAUNDRY EXHAUST FAN 1 INLET NODE,Air,2
 Node,19,FLOOR 1 LOBBY VAV BOX OUTLET NODE NAME,Air,4
 Node,20,FLOOR 1 LOUNGE VAV BOX OUTLET NODE NAME,Air,4
 Node,21,FLOOR 1 MECH 1 VAV BOX OUTLET NODE NAME,Air,4
 Node,22,FLOOR 1 MECH 2 VAV BOX OUTLET NODE NAME,Air,4
 Node,23,FLOOR 1 OFFICE 1 VAV BOX OUTLET NODE NAME,Air,4
 Node,24,FLOOR 1 OFFICE 2 VAV BOX OUTLET NODE NAME,Air,4
 Node,25,FLOOR 1 OFFICE 3 VAV BOX OUTLET NODE NAME,Air,4
 Node,26,FLOOR 1 OFFICE 3 PERIMETER 1 VAV BOX OUTLET NODE NAME,Air,4
 Node,27,FLOOR 1 OFFICE 3 PERIMETER 2 VAV BOX OUTLET NODE NAME,Air,4
 Node,28,FLOOR 1 OFFICE 3 PERIMETER 3 VAV BOX OUTLET NODE NAME,Air,4
 Node,29,FLOOR 1 PATIENT VAV BOX OUTLET NODE NAME,Air,4
 Node,30,FLOOR 1 PHARMACY VAV BOX OUTLET NODE NAME,Air,4
 Node,31,FLOOR 1 PHYSICAL THERAPY VAV BOX OUTLET NODE NAME,Air,4
 Node,32,FLOOR 1 RECEIVING VAV BOX OUTLET NODE NAME,Air,4
 Node,33,FLOOR 1 RECEPTION VAV BOX OUTLET NODE NAME,Air,4
 Node,34,FLOOR 1 SOIL VAV BOX OUTLET NODE NAME,Air,4
 Node,35,FLOOR 1 SOIL EXHAUST FAN 1 INLET NODE,Air,2
 Node,36,FLOOR 1 STORAGE VAV BOX OUTLET NODE NAME,Air,4
 Node,37,FLOOR 1 WAITING VAV BOX OUTLET NODE NAME,Air,4
 Node,38,FLOOR 2 CHAPEL VAV BOX OUTLET NODE NAME,Air,4
 Node,39,FLOOR 2 CLEAN 1 VAV BOX OUTLET NODE NAME,Air,4
 Node,40,FLOOR 2 CLEAN 2 VAV BOX OUTLET NODE NAME,Air,4
 Node,41,FLOOR 2 CORRIDOR VAV BOX OUTLET NODE NAME,Air,4
 Node,42,FLOOR 2 ELEVATOR VAV BOX OUTLET NODE NAME,Air,4
 Node,43,FLOOR 2 EXAM 1 VAV BOX OUTLET NODE NAME,Air,4
 Node,44,FLOOR 2 EXAM 2 VAV BOX OUTLET NODE NAME,Air,4
 Node,45,FLOOR 2 EXAM 3 VAV BOX OUTLET NODE NAME,Air,4
 Node,46,FLOOR 2 EXAM 4 VAV BOX OUTLET NODE NAME,Air,4
 Node,47,FLOOR 2 GIFT SHOP VAV BOX OUTLET NODE NAME,Air,4
 Node,48,FLOOR 2 IMAGING 1 VAV BOX OUTLET NODE NAME,Air,4
 Node,49,FLOOR 2 IMAGING 2 VAV BOX OUTLET NODE NAME,Air,4
 Node,50,FLOOR 2 IMAGING 3 VAV BOX OUTLET NODE NAME,Air,4
 Node,51,FLOOR 2 LAB 1 VAV BOX OUTLET NODE NAME,Air,4
 Node,52,FLOOR 2 LAB 2 VAV BOX OUTLET NODE NAME,Air,4
 Node,53,FLOOR 2 LOCKERS VAV BOX OUTLET NODE NAME,Air,4
 Node,54,FLOOR 2 LOCKERS EXHAUST FAN 1 INLET NODE,Air,2
 Node,55,FLOOR 2 LOUNGE 1 VAV BOX OUTLET NODE NAME,Air,4
 Node,56,FLOOR 2 LOUNGE 2 VAV BOX OUTLET NODE NAME,Air,4
 Node,57,FLOOR 2 NURSE STATION 1 VAV BOX OUTLET NODE NAME,Air,4
 Node,58,FLOOR 2 NURSE STATION 2 VAV BOX OUTLET NODE NAME,Air,4
 Node,59,FLOOR 2 OFFICE 1 VAV BOX OUTLET NODE NAME,Air,4
 Node,60,FLOOR 2 OFFICE 2 VAV BOX OUTLET NODE NAME,Air,4
 Node,61,FLOOR 2 OFFICE 3 VAV BOX OUTLET NODE NAME,Air,4
 Node,62,FLOOR 2 OFFICE 4 VAV BOX OUTLET NODE NAME,Air,4
 Node,63,FLOOR 2 OPERATING VAV BOX OUTLET NODE NAME,Air,4
 Node,64,FLOOR 2 PACU VAV BOX OUTLET NODE NAME,Air,4
 Node,65,FLOOR 2 PATIENT 1 VAV BOX OUTLET NODE NAME,Air,4
 Node,66,FLOOR 2 PATIENT 2 VAV BOX OUTLET NODE NAME,Air,4
 Node,67,FLOOR 2 PROCEDURE 1 VAV BOX OUTLET NODE NAME,Air,4
 Node,68,FLOOR 2 PROCEDURE 2 VAV BOX OUTLET NODE NAME,Air,4
 Node,69,FLOOR 2 RECEPTION VAV BOX OUTLET NODE NAME,Air,4
 Node,70,FLOOR 2 RESTROOM 1 VAV BOX OUTLET NODE NAME,Air,4
 Node,71,FLOOR 2 RESTROOM 1 EXHAUST FAN 1 INLET NODE,Air,2
 Node,72,FLOOR 2 RESTROOM 2 VAV BOX OUTLET NODE NAME,Air,4
 Node,73,FLOOR 2 RESTROOM 2 EXHAUST FAN 1 INLET NODE,Air,2
 Node,74,FLOOR 2 SOIL 1 VAV BOX OUTLET NODE NAME,Air,4
 Node,75,FLOOR 2 SOIL 1 EXHAUST FAN 1 INLET NODE,Air,2
 Node,76,FLOOR 2 SOIL 2 VAV BOX OUTLET NODE NAME,Air,4
 Node,77,FLOOR 2 SOIL 2 EXHAUST FAN 1 INLET NODE,Air,2
 Node,78,FLOOR 2 STERILIZING VAV BOX OUTLET NODE NAME,Air,4
 Node,79,FLOOR 2 STERILIZING EXHAUST FAN 1 INLET NODE,Air,2
 Node,80,FLOOR 2 STORAGE 1 VAV BOX OUTLET NODE NAME,Air,4
 Node,81,FLOOR 2 STORAGE 2 VAV BOX OUTLET NODE NAME,Air,4
 Node,82,FLOOR 2 TRAUMA VAV BOX OUTLET NODE NAME,Air,4
 Node,83,FLOOR 2 TRIAGE VAV BOX OUTLET NODE NAME,Air,4
 Node,84,FLOOR 2 TRIAGE EXHAUST FAN 1 INLET NODE,Air,2
 Node,85,FLOOR 2 WAITING VAV BOX OUTLET NODE NAME,Air,4
 Node,86,FLOOR 3 CLEAN VAV BOX OUTLET NODE NAME,Air,4
 Node,87,FLOOR 3 ELEVATOR VAV BOX OUTLET NODE NAME,Air,4
 Node,88,FLOOR 3 EXAM VAV BOX OUTLET NODE NAME,Air,4
 Node,89,FLOOR 3 ICU VAV BOX OUTLET NODE NAME,Air,4
 Node,90,FLOOR 3 NURSE STATION 1 VAV BOX OUTLET NODE NAME,Air,4
 Node,91,FLOOR 3 NURSE STATION 2 VAV BOX OUTLET NODE NAME,Air,4
 Node,92,FLOOR 3 NURSERY VAV BOX OUTLET NODE NAME,Air,4
 Node,93,FLOOR 3 OFFICE VAV BOX OUTLET NODE NAME,Air,4
 Node,94,FLOOR 3 OPERATING VAV BOX OUTLET NODE NAME,Air,4
 Node,95,FLOOR 3 PATIENT 1 VAV BOX OUTLET NODE NAME,Air,4
 Node,96,FLOOR 3 PATIENT 2 VAV BOX OUTLET NODE NAME,Air,4
 Node,97,FLOOR 3 PATIENT 3 VAV BOX OUTLET NODE NAME,Air,4
 Node,98,FLOOR 3 PATIENT 4 VAV BOX OUTLET NODE NAME,Air,4
 Node,99,FLOOR 3 PATIENT CORRIDOR 1 VAV BOX OUTLET NODE NAME,Air,4
 Node,100,FLOOR 3 PATIENT CORRIDOR 2 VAV BOX OUTLET NODE NAME,Air,4
 Node,101,FLOOR 3 PROCEDURE VAV BOX OUTLET NODE NAME,Air,4
 Node,102,FLOOR 3 SOIL VAV BOX OUTLET NODE NAME,Air,4
 Node,103,FLOOR 3 SOIL EXHAUST FAN 1 INLET NODE,Air,2
 Node,104,FLOOR 3 SUPPLY VAV BOX OUTLET NODE NAME,Air,4
 Node,105,FLOOR 3 TRIAGE VAV BOX OUTLET NODE NAME,Air,4
 Node,106,FLOOR 3 TRIAGE EXHAUST FAN 1 INLET NODE,Air,2
 Node,107,FLOOR 3 WAITING VAV BOX OUTLET NODE NAME,Air,4
 Node,108,FLOOR 4-6 CLEAN VAV BOX OUTLET NODE NAME,Air,4
 Node,109,FLOOR 4-6 ELEVATOR VAV BOX OUTLET NODE NAME,Air,4
 Node,110,FLOOR 4-6 NURSE STATION VAV BOX OUTLET NODE NAME,Air,4
 Node,111,FLOOR 4-6 OFFICE VAV BOX OUTLET NODE NAME,Air,4
 Node,112,FLOOR 4-6 PATIENT 1 VAV BOX OUTLET NODE NAME,Air,4
 Node,113,FLOOR 4-6 PATIENT 2 VAV BOX OUTLET NODE NAME,Air,4
 Node,114,FLOOR 4-6 PATIENT 3 VAV BOX OUTLET NODE NAME,Air,4
 Node,115,FLOOR 4-6 PATIENT 4 VAV BOX OUTLET NODE NAME,Air,4
 Node,116,FLOOR 4-6 PATIENT CORRIDOR 1 VAV BOX OUTLET NODE NAME,Air,4
 Node,117,FLOOR 4-6 PATIENT CORRIDOR 2 VAV BOX OUTLET NODE NAME,Air,4
 Node,118,FLOOR 4-6 SOIL VAV BOX OUTLET NODE NAME,Air,4
 Node,119,FLOOR 4-6 SOIL EXHAUST FAN 1 INLET NODE,Air,2
 Node,120,FLOOR 4-6 SUPPLY VAV BOX OUTLET NODE NAME,Air,4
 Node,121,FLOOR 7 CLEAN VAV BOX OUTLET NODE NAME,Air,4
 Node,122,FLOOR 7 ELEVATOR VAV BOX OUTLET NODE NAME,Air,4
 Node,123,FLOOR 7 NURSE STATION VAV BOX OUTLET NODE NAME,Air,4
 Node,124,FLOOR 7 OFFICE VAV BOX OUTLET NODE NAME,Air,4
 Node,125,FLOOR 7 PATIENT 1 VAV BOX OUTLET NODE NAME,Air,4
 Node,126,FLOOR 7 PATIENT 2 VAV BOX OUTLET NODE NAME,Air,4
 Node,127,FLOOR 7 PATIENT 3 VAV BOX OUTLET NODE NAME,Air,4
 Node,128,FLOOR 7 PATIENT 4 VAV BOX OUTLET NODE NAME,Air,4
 Node,129,FLOOR 7 PATIENT CORRIDOR 1 VAV BOX OUTLET NODE NAME,Air,4
 Node,130,FLOOR 7 PATIENT CORRIDOR 2 VAV BOX OUTLET NODE NAME,Air,4
 Node,131,FLOOR 7 SOIL VAV BOX OUTLET NODE NAME,Air,4
 Node,132,FLOOR 7 SOIL EXHAUST FAN 1 INLET NODE,Air,2
 Node,133,FLOOR 7 SUPPLY VAV BOX OUTLET NODE NAME,Air,4
 Node,134,MOB FLOOR 1 CORE VAV BOX OUTLET NODE NAME,Air,4
 Node,135,MOB FLOOR 1 PERIMETER 1 VAV BOX OUTLET NODE NAME,Air,4
 Node,136,MOB FLOOR 1 PERIMETER 2 VAV BOX OUTLET NODE NAME,Air,4
 Node,137,MOB FLOOR 1 PERIMETER 3 VAV BOX OUTLET NODE NAME,Air,4
 Node,138,MOB FLOOR 2-4 CORE VAV BOX OUTLET NODE NAME,Air,4
 Node,139,MOB FLOOR 2-4 PERIMETER 1 VAV BOX OUTLET NODE NAME,Air,4
 Node,140,MOB FLOOR 2-4 PERIMETER 2 VAV BOX OUTLET NODE NAME,Air,4
 Node,141,MOB FLOOR 2-4 PERIMETER 3 VAV BOX OUTLET NODE NAME,Air,4
 Node,142,MOB FLOOR 2-4 PERIMETER 4 VAV BOX OUTLET NODE NAME,Air,4
 Node,143,MOB FLOOR 5 CORE VAV BOX OUTLET NODE NAME,Air,4
 Node,144,MOB FLOOR 5 PERIMETER 1 VAV BOX OUTLET NODE NAME,Air,4
 Node,145,MOB FLOOR 5 PERIMETER 2 VAV BOX OUTLET NODE NAME,Air,4
 Node,146,MOB FLOOR 5 PERIMETER 3 VAV BOX OUTLET NODE NAME,Air,4
 Node,147,MOB FLOOR 5 PERIMETER 4 VAV BOX OUTLET NODE NAME,Air,4
 Node,148,AHU2_OAINLET NODE,Air,3
 Node,149,AHU1_OAINLET NODE,Air,3
 Node,150,AHU3_OAINLET NODE,Air,3
 Node,151,AHU5_OAINLET NODE,Air,3
 Node,152,AHU4_OAINLET NODE,Air,3
 Node,153,AHU6_OAINLET NODE,Air,3
 Node,154,AHU2 SUPPLY EQUIPMENT INLET NODE,Air,3
 Node,155,AHU2_OA-AHU2_HEATC 1NODE,Air,5
 Node,156,AHU2_HEATC 1-AHU2_HEATC 2NODE,Air,5
 Node,157,AHU2_HEATC 2-AHU2_HEATC 3NODE,Air,5
 Node,158,AHU2_HEATC 3-AHU2_HEATC 4NODE,Air,5
 Node,159,AHU2_HEATC 4-AHU2_COOLC 1NODE,Air,5
 Node,160,AHU2_COOLC 1-AHU2_COOLC 2NODE,Air,6
 Node,161,AHU2_COOLC 2-AHU2_FANNODE,Air,13
 Node,162,AHU2_FAN-AHU2 HUMIDIFIERNODE,Air,10
 Node,163,AHU2 SUPPLY EQUIPMENT OUTLET NODE,Air,11
 Node,164,AHU1 SUPPLY EQUIPMENT INLET NODE,Air,3
 Node,165,AHU1_OA-AHU1_HEATC 1NODE,Air,5
 Node,166,AHU1_HEATC 1-AHU1_HEATC 2NODE,Air,5
 Node,167,AHU1_HEATC 2-AHU1_HEATC 3NODE,Air,5
 Node,168,AHU1_HEATC 3-AHU1_HEATC 4NODE,Air,5
 Node,169,AHU1_HEATC 4-AHU1_COOLC 1NODE,Air,5
 Node,170,AHU1_COOLC 1-AHU1_COOLC 2NODE,Air,6
 Node,171,AHU1_COOLC 2-AHU1_FANNODE,Air,13
 Node,172,AHU1_FAN-AHU1 HUMIDIFIERNODE,Air,10
 Node,173,AHU1 SUPPLY EQUIPMENT OUTLET NODE,Air,11
 Node,174,AHU3 SUPPLY EQUIPMENT INLET NODE,Air,3
 Node,175,AHU3_OA-AHU3_HEATC 1NODE,Air,5
 Node,176,AHU3_HEATC 1-AHU3_HEATC 2NODE,Air,5
 Node,177,AHU3_HEATC 2-AHU3_HEATC 3NODE,Air,5
 Node,178,AHU3_HEATC 3-AHU3_HEATC 4NODE,Air,5
 Node,179,AHU3_HEATC 4-AHU3_COOLC 1NODE,Air,5
 Node,180,AHU3_COOLC 1-AHU3_COOLC 2NODE,Air,6
 Node,181,AHU3_COOLC 2-AHU3_FANNODE,Air,13
 Node,182,AHU3_FAN-AHU3 HUMIDIFIERNODE,Air,10
 Node,183,AHU3 SUPPLY EQUIPMENT OUTLET NODE,Air,11
 Node,184,AHU5 SUPPLY EQUIPMENT INLET NODE,Air,3
 Node,185,AHU5_OA-AHU5_HEATC 1NODE,Air,5
 Node,186,AHU5_HEATC 1-AHU5_HEATC 2NODE,Air,5
 Node,187,AHU5_HEATC 2-AHU5_HEATC 3NODE,Air,5
 Node,188,AHU5_HEATC 3-AHU5_HEATC 4NODE,Air,5
 Node,189,AHU5_HEATC 4-AHU5_COOLC 1NODE,Air,5
 Node,190,AHU5_COOLC 1-AHU5_COOLC 2NODE,Air,6
 Node,191,AHU5_COOLC 2-AHU5_FANNODE,Air,13
 Node,192,AHU5_FAN-AHU5 HUMIDIFIERNODE,Air,10
 Node,193,AHU5 SUPPLY EQUIPMENT OUTLET NODE,Air,11
 Node,194,AHU4 SUPPLY EQUIPMENT INLET NODE,Air,3
 Node,195,AHU4_OA-AHU4_HEATC 1NODE,Air,5
 Node,196,AHU4_HEATC 1-AHU4_HEATC 2NODE,Air,5
 Node,197,AHU4_HEATC 2-AHU4_HEATC 3NODE,Air,5
 Node,198,AHU4_HEATC 3-AHU4_HEATC 4NODE,Air,5
 Node,199,AHU4_HEATC 4-AHU4_COOLC 1NODE,Air,5
 Node,200,AHU4_COOLC 1-AHU4_COOLC 2NODE,Air,6
 Node,201,AHU4_COOLC 2-AHU4_FANNODE,Air,13
 Node,202,AHU4_FAN-AHU4 HUMIDIFIERNODE,Air,10
 Node,203,AHU4 SUPPLY EQUIPMENT OUTLET NODE,Air,11
 Node,204,AHU6 SUPPLY EQUIPMENT INLET NODE,Air,3
 Node,205,AHU6_OA-AHU6_HEATC 1NODE,Air,5
 Node,206,AHU6_HEATC 1-AHU6_HEATC 2NODE,Air,5
 Node,207,AHU6_HEATC 2-AHU6_HEATC 3NODE,Air,5
 Node,208,AHU6_HEATC 3-AHU6_HEATC 4NODE,Air,5
 Node,209,AHU6_HEATC 4-AHU6_COOLC 1NODE,Air,5
 Node,210,AHU6_COOLC 1-AHU6_COOLC 2NODE,Air,5
 Node,211,AHU6_COOLC 2-AHU6_FANNODE,Air,12
 Node,212,AHU6 SUPPLY EQUIPMENT OUTLET NODE,Air,17
 Node,213,SWHSYS1 SUPPLY INLET NODE,Water,2
 Node,214,SWHSYS1 PUMP-SWHSYS1 WATER HEATERNODEVIACONNECTOR,Water,1
 Node,215,SWHSYS1 PUMP-SWHSYS1 WATER HEATERNODE,Water,1
 Node,216,SWHSYS1 SUPPLY EQUIPMENT OUTLET NODE,Water,1
 Node,217,SWHSYS1 SUPPLY EQUIP BYPASS INLET NODE,Water,1
 Node,218,SWHSYS1 SUPPLY EQUIP BYPASS OUTLET NODE,Water,1
 Node,219,SWHSYS1 SUPPLY MIXER-SWHSYS1 SUPPLY OUTLET PIPE,Water,1
 Node,220,SWHSYS1 SUPPLY OUTLET NODE,Water,4
 Node,221,SWHSYS1 DEMAND INLET NODE,Water,2
 Node,222,SWHSYS1 DEMAND INLET PIPE-SWHSYS1 DEMAND MIXER,Water,1
 Node,223,FLOOR 1 CAFE WATER EQUIPMENT WATER INLET NODE,Water,1
 Node,224,FLOOR 1 CAFE WATER EQUIPMENT WATER OUTLET NODE,Water,1
 Node,225,FLOOR 1 CLEAN WATER EQUIPMENT WATER INLET NODE,Water,1
 Node,226,FLOOR 1 CLEAN WATER EQUIPMENT WATER OUTLET NODE,Water,1
 Node,227,FLOOR 1 CONFERENCE WATER EQUIPMENT WATER INLET NODE,Water,1
 Node,228,FLOOR 1 CONFERENCE WATER EQUIPMENT WATER OUTLET NODE,Water,1
 Node,229,FLOOR 1 DINING WATER EQUIPMENT WATER INLET NODE,Water,1
 Node,230,FLOOR 1 DINING WATER EQUIPMENT WATER OUTLET NODE,Water,1
 Node,231,FLOOR 1 ELEVATOR WATER EQUIPMENT WATER INLET NODE,Water,1
 Node,232,FLOOR 1 ELEVATOR WATER EQUIPMENT WATER OUTLET NODE,Water,1
 Node,233,FLOOR 1 EXAM WATER EQUIPMENT WATER INLET NODE,Water,1
 Node,234,FLOOR 1 EXAM WATER EQUIPMENT WATER OUTLET NODE,Water,1
 Node,235,FLOOR 1 FOOD STORAGE WATER EQUIPMENT WATER INLET NODE,Water,1
 Node,236,FLOOR 1 FOOD STORAGE WATER EQUIPMENT WATER OUTLET NODE,Water,1
 Node,237,FLOOR 1 GAS STORAGE WATER EQUIPMENT WATER INLET NODE,Water,1
 Node,238,FLOOR 1 GAS STORAGE WATER EQUIPMENT WATER OUTLET NODE,Water,1
 Node,239,FLOOR 1 IMAGING WATER EQUIPMENT WATER INLET NODE,Water,1
 Node,240,FLOOR 1 IMAGING WATER EQUIPMENT WATER OUTLET NODE,Water,1
 Node,241,FLOOR 1 KITCHEN WATER EQUIPMENT WATER INLET NODE,Water,1
 Node,242,FLOOR 1 KITCHEN WATER EQUIPMENT WATER OUTLET NODE,Water,1
 Node,243,FLOOR 1 LAB 1 WATER EQUIPMENT WATER INLET NODE,Water,1
 Node,244,FLOOR 1 LAB 1 WATER EQUIPMENT WATER OUTLET NODE,Water,1
 Node,245,FLOOR 1 LAB 2 WATER EQUIPMENT WATER INLET NODE,Water,1
 Node,246,FLOOR 1 LAB 2 WATER EQUIPMENT WATER OUTLET NODE,Water,1
 Node,247,FLOOR 1 LAUNDRY WATER EQUIPMENT WATER INLET NODE,Water,1
 Node,248,FLOOR 1 LAUNDRY WATER EQUIPMENT WATER OUTLET NODE,Water,1
 Node,249,FLOOR 1 LOBBY WATER EQUIPMENT WATER INLET NODE,Water,1
 Node,250,FLOOR 1 LOBBY WATER EQUIPMENT WATER OUTLET NODE,Water,1
 Node,251,FLOOR 1 LOUNGE WATER EQUIPMENT WATER INLET NODE,Water,1
 Node,252,FLOOR 1 LOUNGE WATER EQUIPMENT WATER OUTLET NODE,Water,1
 Node,253,FLOOR 1 MECH 1 WATER EQUIPMENT WATER INLET NODE,Water,1
 Node,254,FLOOR 1 MECH 1 WATER EQUIPMENT WATER OUTLET NODE,Water,1
 Node,255,FLOOR 1 MECH 2 WATER EQUIPMENT WATER INLET NODE,Water,1
 Node,256,FLOOR 1 MECH 2 WATER EQUIPMENT WATER OUTLET NODE,Water,1
 Node,257,FLOOR 1 OFFICE 1 WATER EQUIPMENT WATER INLET NODE,Water,1
 Node,258,FLOOR 1 OFFICE 1 WATER EQUIPMENT WATER OUTLET NODE,Water,1
 Node,259,FLOOR 1 OFFICE 2 WATER EQUIPMENT WATER INLET NODE,Water,1
 Node,260,FLOOR 1 OFFICE 2 WATER EQUIPMENT WATER OUTLET NODE,Water,1
 Node,261,FLOOR 1 OFFICE 3 WATER EQUIPMENT WATER INLET NODE,Water,1
 Node,262,FLOOR 1 OFFICE 3 WATER EQUIPMENT WATER OUTLET NODE,Water,1
 Node,263,FLOOR 1 OFFICE 3 PERIMETER 1 WATER EQUIPMENT WATER INLET NODE,Water,1
 Node,264,FLOOR 1 OFFICE 3 PERIMETER 1 WATER EQUIPMENT WATER OUTLET NODE,Water,1
 Node,265,FLOOR 1 OFFICE 3 PERIMETER 2 WATER EQUIPMENT WATER INLET NODE,Water,1
 Node,266,FLOOR 1 OFFICE 3 PERIMETER 2 WATER EQUIPMENT WATER OUTLET NODE,Water,1
 Node,267,FLOOR 1 OFFICE 3 PERIMETER 3 WATER EQUIPMENT WATER INLET NODE,Water,1
 Node,268,FLOOR 1 OFFICE 3 PERIMETER 3 WATER EQUIPMENT WATER OUTLET NODE,Water,1
 Node,269,FLOOR 1 PATIENT WATER EQUIPMENT WATER INLET NODE,Water,1
 Node,270,FLOOR 1 PATIENT WATER EQUIPMENT WATER OUTLET NODE,Water,1
 Node,271,FLOOR 1 PHARMACY WATER EQUIPMENT WATER INLET NODE,Water,1
 Node,272,FLOOR 1 PHARMACY WATER EQUIPMENT WATER OUTLET NODE,Water,1
 Node,273,FLOOR 1 PHYSICAL THERAPY WATER EQUIPMENT WATER INLET NODE,Water,1
 Node,274,FLOOR 1 PHYSICAL THERAPY WATER EQUIPMENT WATER OUTLET NODE,Water,1
 Node,275,FLOOR 1 RECEIVING WATER EQUIPMENT WATER INLET NODE,Water,1
 Node,276,FLOOR 1 RECEIVING WATER EQUIPMENT WATER OUTLET NODE,Water,1
 Node,277,FLOOR 1 RECEPTION WATER EQUIPMENT WATER INLET NODE,Water,1
 Node,278,FLOOR 1 RECEPTION WATER EQUIPMENT WATER OUTLET NODE,Water,1
 Node,279,FLOOR 1 SOIL WATER EQUIPMENT WATER INLET NODE,Water,1
 Node,280,FLOOR 1 SOIL WATER EQUIPMENT WATER OUTLET NODE,Water,1
 Node,281,FLOOR 1 STORAGE WATER EQUIPMENT WATER INLET NODE,Water,1
 Node,282,FLOOR 1 STORAGE WATER EQUIPMENT WATER OUTLET NODE,Water,1
 Node,283,FLOOR 1 WAITING WATER EQUIPMENT WATER INLET NODE,Water,1
 Node,284,FLOOR 1 WAITING WATER EQUIPMENT WATER OUTLET NODE,Water,1
 Node,285,FLOOR 2 CHAPEL WATER EQUIPMENT WATER INLET NODE,Water,1
 Node,286,FLOOR 2 CHAPEL WATER EQUIPMENT WATER OUTLET NODE,Water,1
 Node,287,FLOOR 2 CLEAN 1 WATER EQUIPMENT WATER INLET NODE,Water,1
 Node,288,FLOOR 2 CLEAN 1 WATER EQUIPMENT WATER OUTLET NODE,Water,1
 Node,289,FLOOR 2 CLEAN 2 WATER EQUIPMENT WATER INLET NODE,Water,1
 Node,290,FLOOR 2 CLEAN 2 WATER EQUIPMENT WATER OUTLET NODE,Water,1
 Node,291,FLOOR 2 CORRIDOR WATER EQUIPMENT WATER INLET NODE,Water,1
 Node,292,FLOOR 2 CORRIDOR WATER EQUIPMENT WATER OUTLET NODE,Water,1
 Node,293,FLOOR 2 ELEVATOR WATER EQUIPMENT WATER INLET NODE,Water,1
 Node,294,FLOOR 2 ELEVATOR WATER EQUIPMENT WATER OUTLET NODE,Water,1
 Node,295,FLOOR 2 EXAM 1 WATER EQUIPMENT WATER INLET NODE,Water,1
 Node,296,FLOOR 2 EXAM 1 WATER EQUIPMENT WATER OUTLET NODE,Water,1
 Node,297,FLOOR 2 EXAM 2 WATER EQUIPMENT WATER INLET NODE,Water,1
 Node,298,FLOOR 2 EXAM 2 WATER EQUIPMENT WATER OUTLET NODE,Water,1
 Node,299,FLOOR 2 EXAM 3 WATER EQUIPMENT WATER INLET NODE,Water,1
 Node,300,FLOOR 2 EXAM 3 WATER EQUIPMENT WATER OUTLET NODE,Water,1
 Node,301,FLOOR 2 EXAM 4 WATER EQUIPMENT WATER INLET NODE,Water,1
 Node,302,FLOOR 2 EXAM 4 WATER EQUIPMENT WATER OUTLET NODE,Water,1
 Node,303,FLOOR 2 GIFT SHOP WATER EQUIPMENT WATER INLET NODE,Water,1
 Node,304,FLOOR 2 GIFT SHOP WATER EQUIPMENT WATER OUTLET NODE,Water,1
 Node,305,FLOOR 2 IMAGING 1 WATER EQUIPMENT WATER INLET NODE,Water,1
 Node,306,FLOOR 2 IMAGING 1 WATER EQUIPMENT WATER OUTLET NODE,Water,1
 Node,307,FLOOR 2 IMAGING 2 WATER EQUIPMENT WATER INLET NODE,Water,1
 Node,308,FLOOR 2 IMAGING 2 WATER EQUIPMENT WATER OUTLET NODE,Water,1
 Node,309,FLOOR 2 IMAGING 3 WATER EQUIPMENT WATER INLET NODE,Water,1
 Node,310,FLOOR 2 IMAGING 3 WATER EQUIPMENT WATER OUTLET NODE,Water,1
 Node,311,FLOOR 2 LAB 1 WATER EQUIPMENT WATER INLET NODE,Water,1
 Node,312,FLOOR 2 LAB 1 WATER EQUIPMENT WATER OUTLET NODE,Water,1
 Node,313,FLOOR 2 LAB 2 WATER EQUIPMENT WATER INLET NODE,Water,1
 Node,314,FLOOR 2 LAB 2 WATER EQUIPMENT WATER OUTLET NODE,Water,1
 Node,315,FLOOR 2 LOCKERS WATER EQUIPMENT WATER INLET NODE,Water,1
 Node,316,FLOOR 2 LOCKERS WATER EQUIPMENT WATER OUTLET NODE,Water,1
 Node,317,FLOOR 2 LOUNGE 1 WATER EQUIPMENT WATER INLET NODE,Water,1
 Node,318,FLOOR 2 LOUNGE 1 WATER EQUIPMENT WATER OUTLET NODE,Water,1
 Node,319,FLOOR 2 LOUNGE 2 WATER EQUIPMENT WATER INLET NODE,Water,1
 Node,320,FLOOR 2 LOUNGE 2 WATER EQUIPMENT WATER OUTLET NODE,Water,1
 Node,321,FLOOR 2 NURSE STATION 1 WATER EQUIPMENT WATER INLET NODE,Water,1
 Node,322,FLOOR 2 NURSE STATION 1 WATER EQUIPMENT WATER OUTLET NODE,Water,1
 Node,323,FLOOR 2 NURSE STATION 2 WATER EQUIPMENT WATER INLET NODE,Water,1
 Node,324,FLOOR 2 NURSE STATION 2 WATER EQUIPMENT WATER OUTLET NODE,Water,1
 Node,325,FLOOR 2 OFFICE 1 WATER EQUIPMENT WATER INLET NODE,Water,1
 Node,326,FLOOR 2 OFFICE 1 WATER EQUIPMENT WATER OUTLET NODE,Water,1
 Node,327,FLOOR 2 OFFICE 2 WATER EQUIPMENT WATER INLET NODE,Water,1
 Node,328,FLOOR 2 OFFICE 2 WATER EQUIPMENT WATER OUTLET NODE,Water,1
 Node,329,FLOOR 2 OFFICE 3 WATER EQUIPMENT WATER INLET NODE,Water,1
 Node,330,FLOOR 2 OFFICE 3 WATER EQUIPMENT WATER OUTLET NODE,Water,1
 Node,331,FLOOR 2 OFFICE 4 WATER EQUIPMENT WATER INLET NODE,Water,1
 Node,332,FLOOR 2 OFFICE 4 WATER EQUIPMENT WATER OUTLET NODE,Water,1
 Node,333,FLOOR 2 OPERATING WATER EQUIPMENT WATER INLET NODE,Water,1
 Node,334,FLOOR 2 OPERATING WATER EQUIPMENT WATER OUTLET NODE,Water,1
 Node,335,FLOOR 2 PACU WATER EQUIPMENT WATER INLET NODE,Water,1
 Node,336,FLOOR 2 PACU WATER EQUIPMENT WATER OUTLET NODE,Water,1
 Node,337,FLOOR 2 PATIENT 1 WATER EQUIPMENT WATER INLET NODE,Water,1
 Node,338,FLOOR 2 PATIENT 1 WATER EQUIPMENT WATER OUTLET NODE,Water,1
 Node,339,FLOOR 2 PATIENT 2 WATER EQUIPMENT WATER INLET NODE,Water,1
 Node,340,FLOOR 2 PATIENT 2 WATER EQUIPMENT WATER OUTLET NODE,Water,1
 Node,341,FLOOR 2 PROCEDURE 1 WATER EQUIPMENT WATER INLET NODE,Water,1
 Node,342,FLOOR 2 PROCEDURE 1 WATER EQUIPMENT WATER OUTLET NODE,Water,1
 Node,343,FLOOR 2 PROCEDURE 2 WATER EQUIPMENT WATER INLET NODE,Water,1
 Node,344,FLOOR 2 PROCEDURE 2 WATER EQUIPMENT WATER OUTLET NODE,Water,1
 Node,345,FLOOR 2 RECEPTION WATER EQUIPMENT WATER INLET NODE,Water,1
 Node,346,FLOOR 2 RECEPTION WATER EQUIPMENT WATER OUTLET NODE,Water,1
 Node,347,FLOOR 2 RESTROOM 1 WATER EQUIPMENT WATER INLET NODE,Water,1
 Node,348,FLOOR 2 RESTROOM 1 WATER EQUIPMENT WATER OUTLET NODE,Water,1
 Node,349,FLOOR 2 RESTROOM 2 WATER EQUIPMENT WATER INLET NODE,Water,1
 Node,350,FLOOR 2 RESTROOM 2 WATER EQUIPMENT WATER OUTLET NODE,Water,1
 Node,351,FLOOR 2 SOIL 1 WATER EQUIPMENT WATER INLET NODE,Water,1
 Node,352,FLOOR 2 SOIL 1 WATER EQUIPMENT WATER OUTLET NODE,Water,1
 Node,353,FLOOR 2 SOIL 2 WATER EQUIPMENT WATER INLET NODE,Water,1
 Node,354,FLOOR 2 SOIL 2 WATER EQUIPMENT WATER OUTLET NODE,Water,1
 Node,355,FLOOR 2 STERILIZING WATER EQUIPMENT WATER INLET NODE,Water,1
 Node,356,FLOOR 2 STERILIZING WATER EQUIPMENT WATER OUTLET NODE,Water,1
 Node,357,FLOOR 2 STORAGE 1 WATER EQUIPMENT WATER INLET NODE,Water,1
 Node,358,FLOOR 2 STORAGE 1 WATER EQUIPMENT WATER OUTLET NODE,Water,1
 Node,359,FLOOR 2 STORAGE 2 WATER EQUIPMENT WATER INLET NODE,Water,1
 Node,360,FLOOR 2 STORAGE 2 WATER EQUIPMENT WATER OUTLET NODE,Water,1
 Node,361,FLOOR 2 TRAUMA WATER EQUIPMENT WATER INLET NODE,Water,1
 Node,362,FLOOR 2 TRAUMA WATER EQUIPMENT WATER OUTLET NODE,Water,1
 Node,363,FLOOR 2 TRIAGE WATER EQUIPMENT WATER INLET NODE,Water,1
 Node,364,FLOOR 2 TRIAGE WATER EQUIPMENT WATER OUTLET NODE,Water,1
 Node,365,FLOOR 2 WAITING WATER EQUIPMENT WATER INLET NODE,Water,1
 Node,366,FLOOR 2 WAITING WATER EQUIPMENT WATER OUTLET NODE,Water,1
 Node,367,FLOOR 3 CLEAN WATER EQUIPMENT WATER INLET NODE,Water,1
 Node,368,FLOOR 3 CLEAN WATER EQUIPMENT WATER OUTLET NODE,Water,1
 Node,369,FLOOR 3 ELEVATOR WATER EQUIPMENT WATER INLET NODE,Water,1
 Node,370,FLOOR 3 ELEVATOR WATER EQUIPMENT WATER OUTLET NODE,Water,1
 Node,371,FLOOR 3 EXAM WATER EQUIPMENT WATER INLET NODE,Water,1
 Node,372,FLOOR 3 EXAM WATER EQUIPMENT WATER OUTLET NODE,Water,1
 Node,373,FLOOR 3 ICU WATER EQUIPMENT WATER INLET NODE,Water,1
 Node,374,FLOOR 3 ICU WATER EQUIPMENT WATER OUTLET NODE,Water,1
 Node,375,FLOOR 3 NURSE STATION 1 WATER EQUIPMENT WATER INLET NODE,Water,1
 Node,376,FLOOR 3 NURSE STATION 1 WATER EQUIPMENT WATER OUTLET NODE,Water,1
 Node,377,FLOOR 3 NURSE STATION 2 WATER EQUIPMENT WATER INLET NODE,Water,1
 Node,378,FLOOR 3 NURSE STATION 2 WATER EQUIPMENT WATER OUTLET NODE,Water,1
 Node,379,FLOOR 3 NURSERY WATER EQUIPMENT WATER INLET NODE,Water,1
 Node,380,FLOOR 3 NURSERY WATER EQUIPMENT WATER OUTLET NODE,Water,1
 Node,381,FLOOR 3 OFFICE WATER EQUIPMENT WATER INLET NODE,Water,1
 Node,382,FLOOR 3 OFFICE WATER EQUIPMENT WATER OUTLET NODE,Water,1
 Node,383,FLOOR 3 OPERATING WATER EQUIPMENT WATER INLET NODE,Water,1
 Node,384,FLOOR 3 OPERATING WATER EQUIPMENT WATER OUTLET NODE,Water,1
 Node,385,FLOOR 3 PATIENT 1 WATER EQUIPMENT WATER INLET NODE,Water,1
 Node,386,FLOOR 3 PATIENT 1 WATER EQUIPMENT WATER OUTLET NODE,Water,1
 Node,387,FLOOR 3 PATIENT 2 WATER EQUIPMENT WATER INLET NODE,Water,1
 Node,388,FLOOR 3 PATIENT 2 WATER EQUIPMENT WATER OUTLET NODE,Water,1
 Node,389,FLOOR 3 PATIENT 3 WATER EQUIPMENT WATER INLET NODE,Water,1
 Node,390,FLOOR 3 PATIENT 3 WATER EQUIPMENT WATER OUTLET NODE,Water,1
 Node,391,FLOOR 3 PATIENT 4 WATER EQUIPMENT WATER INLET NODE,Water,1
 Node,392,FLOOR 3 PATIENT 4 WATER EQUIPMENT WATER OUTLET NODE,Water,1
 Node,393,FLOOR 3 PATIENT CORRIDOR 1 WATER EQUIPMENT WATER INLET NODE,Water,1
 Node,394,FLOOR 3 PATIENT CORRIDOR 1 WATER EQUIPMENT WATER OUTLET NODE,Water,1
 Node,395,FLOOR 3 PATIENT CORRIDOR 2 WATER EQUIPMENT WATER INLET NODE,Water,1
 Node,396,FLOOR 3 PATIENT CORRIDOR 2 WATER EQUIPMENT WATER OUTLET NODE,Water,1
 Node,397,FLOOR 3 PROCEDURE WATER EQUIPMENT WATER INLET NODE,Water,1
 Node,398,FLOOR 3 PROCEDURE WATER EQUIPMENT WATER OUTLET NODE,Water,1
 Node,399,FLOOR 3 SOIL WATER EQUIPMENT WATER INLET NODE,Water,1
 Node,400,FLOOR 3 SOIL WATER EQUIPMENT WATER OUTLET NODE,Water,1
 Node,401,FLOOR 3 SUPPLY WATER EQUIPMENT WATER INLET NODE,Water,1
 Node,402,FLOOR 3 SUPPLY WATER EQUIPMENT WATER OUTLET NODE,Water,1
 Node,403,FLOOR 3 TRIAGE WATER EQUIPMENT WATER INLET NODE,Water,1
 Node,404,FLOOR 3 TRIAGE WATER EQUIPMENT WATER OUTLET NODE,Water,1
 Node,405,FLOOR 3 WAITING WATER EQUIPMENT WATER INLET NODE,Water,1
 Node,406,FLOOR 3 WAITING WATER EQUIPMENT WATER OUTLET NODE,Water,1
 Node,407,FLOOR 4-6 CLEAN WATER EQUIPMENT WATER INLET NODE,Water,1
 Node,408,FLOOR 4-6 CLEAN WATER EQUIPMENT WATER OUTLET NODE,Water,1
 Node,409,FLOOR 4-6 ELEVATOR WATER EQUIPMENT WATER INLET NODE,Water,1
 Node,410,FLOOR 4-6 ELEVATOR WATER EQUIPMENT WATER OUTLET NODE,Water,1
 Node,411,FLOOR 4-6 NURSE STATION WATER EQUIPMENT WATER INLET NODE,Water,1
 Node,412,FLOOR 4-6 NURSE STATION WATER EQUIPMENT WATER OUTLET NODE,Water,1
 Node,413,FLOOR 4-6 OFFICE WATER EQUIPMENT WATER INLET NODE,Water,1
 Node,414,FLOOR 4-6 OFFICE WATER EQUIPMENT WATER OUTLET NODE,Water,1
 Node,415,FLOOR 4-6 PATIENT 1 WATER EQUIPMENT WATER INLET NODE,Water,1
 Node,416,FLOOR 4-6 PATIENT 1 WATER EQUIPMENT WATER OUTLET NODE,Water,1
 Node,417,FLOOR 4-6 PATIENT 2 WATER EQUIPMENT WATER INLET NODE,Water,1
 Node,418,FLOOR 4-6 PATIENT 2 WATER EQUIPMENT WATER OUTLET NODE,Water,1
 Node,419,FLOOR 4-6 PATIENT 3 WATER EQUIPMENT WATER INLET NODE,Water,1
 Node,420,FLOOR 4-6 PATIENT 3 WATER EQUIPMENT WATER OUTLET NODE,Water,1
 Node,421,FLOOR 4-6 PATIENT 4 WATER EQUIPMENT WATER INLET NODE,Water,1
 Node,422,FLOOR 4-6 PATIENT 4 WATER EQUIPMENT WATER OUTLET NODE,Water,1
 Node,423,FLOOR 4-6 PATIENT CORRIDOR 1 WATER EQUIPMENT WATER INLET NODE,Water,1
 Node,424,FLOOR 4-6 PATIENT CORRIDOR 1 WATER EQUIPMENT WATER OUTLET NODE,Water,1
 Node,425,FLOOR 4-6 PATIENT CORRIDOR 2 WATER EQUIPMENT WATER INLET NODE,Water,1
 Node,426,FLOOR 4-6 PATIENT CORRIDOR 2 WATER EQUIPMENT WATER OUTLET NODE,Water,1
 Node,427,FLOOR 4-6 SOIL WATER EQUIPMENT WATER INLET NODE,Water,1
 Node,428,FLOOR 4-6 SOIL WATER EQUIPMENT WATER OUTLET NODE,Water,1
 Node,429,FLOOR 4-6 SUPPLY WATER EQUIPMENT WATER INLET NODE,Water,1
 Node,430,FLOOR 4-6 SUPPLY WATER EQUIPMENT WATER OUTLET NODE,Water,1
 Node,431,FLOOR 7 CLEAN WATER EQUIPMENT WATER INLET NODE,Water,1
 Node,432,FLOOR 7 CLEAN WATER EQUIPMENT WATER OUTLET NODE,Water,1
 Node,433,FLOOR 7 ELEVATOR WATER EQUIPMENT WATER INLET NODE,Water,1
 Node,434,FLOOR 7 ELEVATOR WATER EQUIPMENT WATER OUTLET NODE,Water,1
 Node,435,FLOOR 7 NURSE STATION WATER EQUIPMENT WATER INLET NODE,Water,1
 Node,436,FLOOR 7 NURSE STATION WATER EQUIPMENT WATER OUTLET NODE,Water,1
 Node,437,FLOOR 7 OFFICE WATER EQUIPMENT WATER INLET NODE,Water,1
 Node,438,FLOOR 7 OFFICE WATER EQUIPMENT WATER OUTLET NODE,Water,1
 Node,439,FLOOR 7 PATIENT 1 WATER EQUIPMENT WATER INLET NODE,Water,1
 Node,440,FLOOR 7 PATIENT 1 WATER EQUIPMENT WATER OUTLET NODE,Water,1
 Node,441,FLOOR 7 PATIENT 2 WATER EQUIPMENT WATER INLET NODE,Water,1
 Node,442,FLOOR 7 PATIENT 2 WATER EQUIPMENT WATER OUTLET NODE,Water,1
 Node,443,FLOOR 7 PATIENT 3 WATER EQUIPMENT WATER INLET NODE,Water,1
 Node,444,FLOOR 7 PATIENT 3 WATER EQUIPMENT WATER OUTLET NODE,Water,1
 Node,445,FLOOR 7 PATIENT 4 WATER EQUIPMENT WATER INLET NODE,Water,1
 Node,446,FLOOR 7 PATIENT 4 WATER EQUIPMENT WATER OUTLET NODE,Water,1
 Node,447,FLOOR 7 PATIENT CORRIDOR 1 WATER EQUIPMENT WATER INLET NODE,Water,1
 Node,448,FLOOR 7 PATIENT CORRIDOR 1 WATER EQUIPMENT WATER OUTLET NODE,Water,1
 Node,449,FLOOR 7 PATIENT CORRIDOR 2 WATER EQUIPMENT WATER INLET NODE,Water,1
 Node,450,FLOOR 7 PATIENT CORRIDOR 2 WATER EQUIPMENT WATER OUTLET NODE,Water,1
 Node,451,FLOOR 7 SOIL WATER EQUIPMENT WATER INLET NODE,Water,1
 Node,452,FLOOR 7 SOIL WATER EQUIPMENT WATER OUTLET NODE,Water,1
 Node,453,FLOOR 7 SUPPLY WATER EQUIPMENT WATER INLET NODE,Water,1
 Node,454,FLOOR 7 SUPPLY WATER EQUIPMENT WATER OUTLET NODE,Water,1
 Node,455,MOB FLOOR 1 CORE WATER EQUIPMENT WATER INLET NODE,Water,1
 Node,456,MOB FLOOR 1 CORE WATER EQUIPMENT WATER OUTLET NODE,Water,1
 Node,457,MOB FLOOR 1 PERIMETER 1 WATER EQUIPMENT WATER INLET NODE,Water,1
 Node,458,MOB FLOOR 1 PERIMETER 1 WATER EQUIPMENT WATER OUTLET NODE,Water,1
 Node,459,MOB FLOOR 1 PERIMETER 2 WATER EQUIPMENT WATER INLET NODE,Water,1
 Node,460,MOB FLOOR 1 PERIMETER 2 WATER EQUIPMENT WATER OUTLET NODE,Water,1
 Node,461,MOB FLOOR 1 PERIMETER 3 WATER EQUIPMENT WATER INLET NODE,Water,1
 Node,462,MOB FLOOR 1 PERIMETER 3 WATER EQUIPMENT WATER OUTLET NODE,Water,1
 Node,463,MOB FLOOR 2-4 CORE WATER EQUIPMENT WATER INLET NODE,Water,1
 Node,464,MOB FLOOR 2-4 CORE WATER EQUIPMENT WATER OUTLET NODE,Water,1
 Node,465,MOB FLOOR 2-4 PERIMETER 1 WATER EQUIPMENT WATER INLET NODE,Water,1
 Node,466,MOB FLOOR 2-4 PERIMETER 1 WATER EQUIPMENT WATER OUTLET NODE,Water,1
 Node,467,MOB FLOOR 2-4 PERIMETER 2 WATER EQUIPMENT WATER INLET NODE,Water,1
 Node,468,MOB FLOOR 2-4 PERIMETER 2 WATER EQUIPMENT WATER OUTLET NODE,Water,1
 Node,469,MOB FLOOR 2-4 PERIMETER 3 WATER EQUIPMENT WATER INLET NODE,Water,1
 Node,470,MOB FLOOR 2-4 PERIMETER 3 WATER EQUIPMENT WATER OUTLET NODE,Water,1
 Node,471,MOB FLOOR 2-4 PERIMETER 4 WATER EQUIPMENT WATER INLET NODE,Water,1
 Node,472,MOB FLOOR 2-4 PERIMETER 4 WATER EQUIPMENT WATER OUTLET NODE,Water,1
 Node,473,MOB FLOOR 5 CORE WATER EQUIPMENT WATER INLET NODE,Water,1
 Node,474,MOB FLOOR 5 CORE WATER EQUIPMENT WATER OUTLET NODE,Water,1
 Node,475,MOB FLOOR 5 PERIMETER 1 WATER EQUIPMENT WATER INLET NODE,Water,1
 Node,476,MOB FLOOR 5 PERIMETER 1 WATER EQUIPMENT WATER OUTLET NODE,Water,1
 Node,477,MOB FLOOR 5 PERIMETER 2 WATER EQUIPMENT WATER INLET NODE,Water,1
 Node,478,MOB FLOOR 5 PERIMETER 2 WATER EQUIPMENT WATER OUTLET NODE,Water,1
 Node,479,MOB FLOOR 5 PERIMETER 3 WATER EQUIPMENT WATER INLET NODE,Water,1
 Node,480,MOB FLOOR 5 PERIMETER 3 WATER EQUIPMENT WATER OUTLET NODE,Water,1
 Node,481,MOB FLOOR 5 PERIMETER 4 WATER EQUIPMENT WATER INLET NODE,Water,1
 Node,482,MOB FLOOR 5 PERIMETER 4 WATER EQUIPMENT WATER OUTLET NODE,Water,1
 Node,483,SWHSYS1 DEMAND BYPASS PIPE INLET NODE,Water,1
 Node,484,SWHSYS1 DEMAND BYPASS PIPE OUTLET NODE,Water,1
 Node,485,SWHSYS1 DEMAND MIXER-SWHSYS1 DEMAND OUTLET PIPE,Water,1
 Node,486,SWHSYS1 DEMAND OUTLET NODE,Water,2
 Node,487,HEATSYS1 SUPPLY INLET NODE,Water,2
 Node,488,HEATSYS1 PUMP-HEATSYS1 BOILERNODEVIACONNECTOR,Water,1
 Node,489,HEATSYS1 PUMP-HEATSYS1 BOILERNODE,Water,1
 Node,490,HEATSYS1 SUPPLY EQUIPMENT OUTLET NODE,Water,2
 Node,491,HEATSYS1 SUPPLY EQUIP BYPASS INLET NODE,Water,1
 Node,492,HEATSYS1 SUPPLY EQUIP BYPASS OUTLET NODE,Water,1
 Node,493,HEATSYS1 SUPPLY MIXER-HEATSYS1 SUPPLY OUTLET PIPE,Water,1
 Node,494,HEATSYS1 SUPPLY OUTLET NODE,Water,4
 Node,495,HEATSYS1 DEMAND INLET NODE,Water,2
 Node,496,HEATSYS1 DEMAND INLET PIPE-HEATSYS1 DEMAND MIXER,Water,1
 Node,497,FLOOR 1 CAFE VAV BOX REHEAT COILDEMAND INLET NODE,Water,1
 Node,498,FLOOR 1 CAFE VAV BOX REHEAT COILDEMAND OUTLET NODE,Water,1
 Node,499,FLOOR 1 CLEAN VAV BOX REHEAT COILDEMAND INLET NODE,Water,1
 Node,500,FLOOR 1 CLEAN VAV BOX REHEAT COILDEMAND OUTLET NODE,Water,1
 Node,501,FLOOR 1 CONFERENCE VAV BOX REHEAT COILDEMAND INLET NODE,Water,1
 Node,502,FLOOR 1 CONFERENCE VAV BOX REHEAT COILDEMAND OUTLET NODE,Water,1
 Node,503,FLOOR 1 DINING VAV BOX REHEAT COILDEMAND INLET NODE,Water,1
 Node,504,FLOOR 1 DINING VAV BOX REHEAT COILDEMAND OUTLET NODE,Water,1
 Node,505,FLOOR 1 ELEVATOR VAV BOX REHEAT COILDEMAND INLET NODE,Water,1
 Node,506,FLOOR 1 ELEVATOR VAV BOX REHEAT COILDEMAND OUTLET NODE,Water,1
 Node,507,FLOOR 1 EXAM VAV BOX REHEAT COILDEMAND INLET NODE,Water,1
 Node,508,FLOOR 1 EXAM VAV BOX REHEAT COILDEMAND OUTLET NODE,Water,1
 Node,509,FLOOR 1 FOOD STORAGE VAV BOX REHEAT COILDEMAND INLET NODE,Water,1
 Node,510,FLOOR 1 FOOD STORAGE VAV BOX REHEAT COILDEMAND OUTLET NODE,Water,1
 Node,511,FLOOR 1 GAS STORAGE VAV BOX REHEAT COILDEMAND INLET NODE,Water,1
 Node,512,FLOOR 1 GAS STORAGE VAV BOX REHEAT COILDEMAND OUTLET NODE,Water,1
 Node,513,FLOOR 1 IMAGING VAV BOX REHEAT COILDEMAND INLET NODE,Water,1
 Node,514,FLOOR 1 IMAGING VAV BOX REHEAT COILDEMAND OUTLET NODE,Water,1
 Node,515,FLOOR 1 KITCHEN VAV BOX REHEAT COILDEMAND INLET NODE,Water,1
 Node,516,FLOOR 1 KITCHEN VAV BOX REHEAT COILDEMAND OUTLET NODE,Water,1
 Node,517,FLOOR 1 LAB 1 VAV BOX REHEAT COILDEMAND INLET NODE,Water,1
 Node,518,FLOOR 1 LAB 1 VAV BOX REHEAT COILDEMAND OUTLET NODE,Water,1
 Node,519,FLOOR 1 LAB 2 VAV BOX REHEAT COILDEMAND INLET NODE,Water,1
 Node,520,FLOOR 1 LAB 2 VAV BOX REHEAT COILDEMAND OUTLET NODE,Water,1
 Node,521,FLOOR 1 LAUNDRY VAV BOX REHEAT COILDEMAND INLET NODE,Water,1
 Node,522,FLOOR 1 LAUNDRY VAV BOX REHEAT COILDEMAND OUTLET NODE,Water,1
 Node,523,FLOOR 1 LOBBY VAV BOX REHEAT COILDEMAND INLET NODE,Water,1
 Node,524,FLOOR 1 LOBBY VAV BOX REHEAT COILDEMAND OUTLET NODE,Water,1
 Node,525,FLOOR 1 LOUNGE VAV BOX REHEAT COILDEMAND INLET NODE,Water,1
 Node,526,FLOOR 1 LOUNGE VAV BOX REHEAT COILDEMAND OUTLET NODE,Water,1
 Node,527,FLOOR 1 MECH 1 VAV BOX REHEAT COILDEMAND INLET NODE,Water,1
 Node,528,FLOOR 1 MECH 1 VAV BOX REHEAT COILDEMAND OUTLET NODE,Water,1
 Node,529,FLOOR 1 MECH 2 VAV BOX REHEAT COILDEMAND INLET NODE,Water,1
 Node,530,FLOOR 1 MECH 2 VAV BOX REHEAT COILDEMAND OUTLET NODE,Water,1
 Node,531,FLOOR 1 OFFICE 1 VAV BOX REHEAT COILDEMAND INLET NODE,Water,1
 Node,532,FLOOR 1 OFFICE 1 VAV BOX REHEAT COILDEMAND OUTLET NODE,Water,1
 Node,533,FLOOR 1 OFFICE 2 VAV BOX REHEAT COILDEMAND INLET NODE,Water,1
 Node,534,FLOOR 1 OFFICE 2 VAV BOX REHEAT COILDEMAND OUTLET NODE,Water,1
 Node,535,FLOOR 1 OFFICE 3 VAV BOX REHEAT COILDEMAND INLET NODE,Water,1
 Node,536,FLOOR 1 OFFICE 3 VAV BOX REHEAT COILDEMAND OUTLET NODE,Water,1
 Node,537,FLOOR 1 OFFICE 3 PERIMETER 1 VAV BOX REHEAT COILDEMAND INLET NODE,Water,1
 Node,538,FLOOR 1 OFFICE 3 PERIMETER 1 VAV BOX REHEAT COILDEMAND OUTLET NODE,Water,1
 Node,539,FLOOR 1 OFFICE 3 PERIMETER 2 VAV BOX REHEAT COILDEMAND INLET NODE,Water,1
 Node,540,FLOOR 1 OFFICE 3 PERIMETER 2 VAV BOX REHEAT COILDEMAND OUTLET NODE,Water,1
 Node,541,FLOOR 1 OFFICE 3 PERIMETER 3 VAV BOX REHEAT COILDEMAND INLET NODE,Water,1
 Node,542,FLOOR 1 OFFICE 3 PERIMETER 3 VAV BOX REHEAT COILDEMAND OUTLET NODE,Water,1
 Node,543,FLOOR 1 PATIENT VAV BOX REHEAT COILDEMAND INLET NODE,Water,1
 Node,544,FLOOR 1 PATIENT VAV BOX REHEAT COILDEMAND OUTLET NODE,Water,1
 Node,545,FLOOR 1 PHARMACY VAV BOX REHEAT COILDEMAND INLET NODE,Water,1
 Node,546,FLOOR 1 PHARMACY VAV BOX REHEAT COILDEMAND OUTLET NODE,Water,1
 Node,547,FLOOR 1 PHYSICAL THERAPY VAV BOX REHEAT COILDEMAND INLET NODE,Water,1
 Node,548,FLOOR 1 PHYSICAL THERAPY VAV BOX REHEAT COILDEMAND OUTLET NODE,Water,1
 Node,549,FLOOR 1 RECEIVING VAV BOX REHEAT COILDEMAND INLET NODE,Water,1
 Node,550,FLOOR 1 RECEIVING VAV BOX REHEAT COILDEMAND OUTLET NODE,Water,1
 Node,551,FLOOR 1 RECEPTION VAV BOX REHEAT COILDEMAND INLET NODE,Water,1
 Node,552,FLOOR 1 RECEPTION VAV BOX REHEAT COILDEMAND OUTLET NODE,Water,1
 Node,553,FLOOR 1 SOIL VAV BOX REHEAT COILDEMAND INLET NODE,Water,1
 Node,554,FLOOR 1 SOIL VAV BOX REHEAT COILDEMAND OUTLET NODE,Water,1
 Node,555,FLOOR 1 STORAGE VAV BOX REHEAT COILDEMAND INLET NODE,Water,1
 Node,556,FLOOR 1 STORAGE VAV BOX REHEAT COILDEMAND OUTLET NODE,Water,1
 Node,557,FLOOR 1 WAITING VAV BOX REHEAT COILDEMAND INLET NODE,Water,1
 Node,558,FLOOR 1 WAITING VAV BOX REHEAT COILDEMAND OUTLET NODE,Water,1
 Node,559,FLOOR 2 CHAPEL VAV BOX REHEAT COILDEMAND INLET NODE,Water,1
 Node,560,FLOOR 2 CHAPEL VAV BOX REHEAT COILDEMAND OUTLET NODE,Water,1
 Node,561,FLOOR 2 CLEAN 1 VAV BOX REHEAT COILDEMAND INLET NODE,Water,1
 Node,562,FLOOR 2 CLEAN 1 VAV BOX REHEAT COILDEMAND OUTLET NODE,Water,1
 Node,563,FLOOR 2 CLEAN 2 VAV BOX REHEAT COILDEMAND INLET NODE,Water,1
 Node,564,FLOOR 2 CLEAN 2 VAV BOX REHEAT COILDEMAND OUTLET NODE,Water,1
 Node,565,FLOOR 2 CORRIDOR VAV BOX REHEAT COILDEMAND INLET NODE,Water,1
 Node,566,FLOOR 2 CORRIDOR VAV BOX REHEAT COILDEMAND OUTLET NODE,Water,1
 Node,567,FLOOR 2 ELEVATOR VAV BOX REHEAT COILDEMAND INLET NODE,Water,1
 Node,568,FLOOR 2 ELEVATOR VAV BOX REHEAT COILDEMAND OUTLET NODE,Water,1
 Node,569,FLOOR 2 EXAM 1 VAV BOX REHEAT COILDEMAND INLET NODE,Water,1
 Node,570,FLOOR 2 EXAM 1 VAV BOX REHEAT COILDEMAND OUTLET NODE,Water,1
 Node,571,FLOOR 2 EXAM 2 VAV BOX REHEAT COILDEMAND INLET NODE,Water,1
 Node,572,FLOOR 2 EXAM 2 VAV BOX REHEAT COILDEMAND OUTLET NODE,Water,1
 Node,573,FLOOR 2 EXAM 3 VAV BOX REHEAT COILDEMAND INLET NODE,Water,1
 Node,574,FLOOR 2 EXAM 3 VAV BOX REHEAT COILDEMAND OUTLET NODE,Water,1
 Node,575,FLOOR 2 EXAM 4 VAV BOX REHEAT COILDEMAND INLET NODE,Water,1
 Node,576,FLOOR 2 EXAM 4 VAV BOX REHEAT COILDEMAND OUTLET NODE,Water,1
 Node,577,FLOOR 2 GIFT SHOP VAV BOX REHEAT COILDEMAND INLET NODE,Water,1
 Node,578,FLOOR 2 GIFT SHOP VAV BOX REHEAT COILDEMAND OUTLET NODE,Water,1
 Node,579,FLOOR 2 IMAGING 1 VAV BOX REHEAT COILDEMAND INLET NODE,Water,1
 Node,580,FLOOR 2 IMAGING 1 VAV BOX REHEAT COILDEMAND OUTLET NODE,Water,1
 Node,581,FLOOR 2 IMAGING 2 VAV BOX REHEAT COILDEMAND INLET NODE,Water,1
 Node,582,FLOOR 2 IMAGING 2 VAV BOX REHEAT COILDEMAND OUTLET NODE,Water,1
 Node,583,FLOOR 2 IMAGING 3 VAV BOX REHEAT COILDEMAND INLET NODE,Water,1
 Node,584,FLOOR 2 IMAGING 3 VAV BOX REHEAT COILDEMAND OUTLET NODE,Water,1
 Node,585,FLOOR 2 LAB 1 VAV BOX REHEAT COILDEMAND INLET NODE,Water,1
 Node,586,FLOOR 2 LAB 1 VAV BOX REHEAT COILDEMAND OUTLET NODE,Water,1
 Node,587,FLOOR 2 LAB 2 VAV BOX REHEAT COILDEMAND INLET NODE,Water,1
 Node,588,FLOOR 2 LAB 2 VAV BOX REHEAT COILDEMAND OUTLET NODE,Water,1
 Node,589,FLOOR 2 LOCKERS VAV BOX REHEAT COILDEMAND INLET NODE,Water,1
 Node,590,FLOOR 2 LOCKERS VAV BOX REHEAT COILDEMAND OUTLET NODE,Water,1
 Node,591,FLOOR 2 LOUNGE 1 VAV BOX REHEAT COILDEMAND INLET NODE,Water,1
 Node,592,FLOOR 2 LOUNGE 1 VAV BOX REHEAT COILDEMAND OUTLET NODE,Water,1
 Node,593,FLOOR 2 LOUNGE 2 VAV BOX REHEAT COILDEMAND INLET NODE,Water,1
 Node,594,FLOOR 2 LOUNGE 2 VAV BOX REHEAT COILDEMAND OUTLET NODE,Water,1
 Node,595,FLOOR 2 NURSE STATION 1 VAV BOX REHEAT COILDEMAND INLET NODE,Water,1
 Node,596,FLOOR 2 NURSE STATION 1 VAV BOX REHEAT COILDEMAND OUTLET NODE,Water,1
 Node,597,FLOOR 2 NURSE STATION 2 VAV BOX REHEAT COILDEMAND INLET NODE,Water,1
 Node,598,FLOOR 2 NURSE STATION 2 VAV BOX REHEAT COILDEMAND OUTLET NODE,Water,1
 Node,599,FLOOR 2 OFFICE 1 VAV BOX REHEAT COILDEMAND INLET NODE,Water,1
 Node,600,FLOOR 2 OFFICE 1 VAV BOX REHEAT COILDEMAND OUTLET NODE,Water,1
 Node,601,FLOOR 2 OFFICE 2 VAV BOX REHEAT COILDEMAND INLET NODE,Water,1
 Node,602,FLOOR 2 OFFICE 2 VAV BOX REHEAT COILDEMAND OUTLET NODE,Water,1
 Node,603,FLOOR 2 OFFICE 3 VAV BOX REHEAT COILDEMAND INLET NODE,Water,1
 Node,604,FLOOR 2 OFFICE 3 VAV BOX REHEAT COILDEMAND OUTLET NODE,Water,1
 Node,605,FLOOR 2 OFFICE 4 VAV BOX REHEAT COILDEMAND INLET NODE,Water,1
 Node,606,FLOOR 2 OFFICE 4 VAV BOX REHEAT COILDEMAND OUTLET NODE,Water,1
 Node,607,FLOOR 2 OPERATING VAV BOX REHEAT COILDEMAND INLET NODE,Water,1
 Node,608,FLOOR 2 OPERATING VAV BOX REHEAT COILDEMAND OUTLET NODE,Water,1
 Node,609,FLOOR 2 PACU VAV BOX REHEAT COILDEMAND INLET NODE,Water,1
 Node,610,FLOOR 2 PACU VAV BOX REHEAT COILDEMAND OUTLET NODE,Water,1
 Node,611,FLOOR 2 PATIENT 1 VAV BOX REHEAT COILDEMAND INLET NODE,Water,1
 Node,612,FLOOR 2 PATIENT 1 VAV BOX REHEAT COILDEMAND OUTLET NODE,Water,1
 Node,613,FLOOR 2 PATIENT 2 VAV BOX REHEAT COILDEMAND INLET NODE,Water,1
 Node,614,FLOOR 2 PATIENT 2 VAV BOX REHEAT COILDEMAND OUTLET NODE,Water,1
 Node,615,FLOOR 2 PROCEDURE 1 VAV BOX REHEAT COILDEMAND INLET NODE,Water,1
 Node,616,FLOOR 2 PROCEDURE 1 VAV BOX REHEAT COILDEMAND OUTLET NODE,Water,1
 Node,617,FLOOR 2 PROCEDURE 2 VAV BOX REHEAT COILDEMAND INLET NODE,Water,1
 Node,618,FLOOR 2 PROCEDURE 2 VAV BOX REHEAT COILDEMAND OUTLET NODE,Water,1
 Node,619,FLOOR 2 RECEPTION VAV BOX REHEAT COILDEMAND INLET NODE,Water,1
 Node,620,FLOOR 2 RECEPTION VAV BOX REHEAT COILDEMAND OUTLET NODE,Water,1
 Node,621,FLOOR 2 RESTROOM 1 VAV BOX REHEAT COILDEMAND INLET NODE,Water,1
 Node,622,FLOOR 2 RESTROOM 1 VAV BOX REHEAT COILDEMAND OUTLET NODE,Water,1
 Node,623,FLOOR 2 RESTROOM 2 VAV BOX REHEAT COILDEMAND INLET NODE,Water,1
 Node,624,FLOOR 2 RESTROOM 2 VAV BOX REHEAT COILDEMAND OUTLET NODE,Water,1
 Node,625,FLOOR 2 SOIL 1 VAV BOX REHEAT COILDEMAND INLET NODE,Water,1
 Node,626,FLOOR 2 SOIL 1 VAV BOX REHEAT COILDEMAND OUTLET NODE,Water,1
 Node,627,FLOOR 2 SOIL 2 VAV BOX REHEAT COILDEMAND INLET NODE,Water,1
 Node,628,FLOOR 2 SOIL 2 VAV BOX REHEAT COILDEMAND OUTLET NODE,Water,1
 Node,629,FLOOR 2 STERILIZING VAV BOX REHEAT COILDEMAND INLET NODE,Water,1
 Node,630,FLOOR 2 STERILIZING VAV BOX REHEAT COILDEMAND OUTLET NODE,Water,1
 Node,631,FLOOR 2 STORAGE 1 VAV BOX REHEAT COILDEMAND INLET NODE,Water,1
 Node,632,FLOOR 2 STORAGE 1 VAV BOX REHEAT COILDEMAND OUTLET NODE,Water,1
 Node,633,FLOOR 2 STORAGE 2 VAV BOX REHEAT COILDEMAND INLET NODE,Water,1
 Node,634,FLOOR 2 STORAGE 2 VAV BOX REHEAT COILDEMAND OUTLET NODE,Water,1
 Node,635,FLOOR 2 TRAUMA VAV BOX REHEAT COILDEMAND INLET NODE,Water,1
 Node,636,FLOOR 2 TRAUMA VAV BOX REHEAT COILDEMAND OUTLET NODE,Water,1
 Node,637,FLOOR 2 TRIAGE VAV BOX REHEAT COILDEMAND INLET NODE,Water,1
 Node,638,FLOOR 2 TRIAGE VAV BOX REHEAT COILDEMAND OUTLET NODE,Water,1
 Node,639,FLOOR 2 WAITING VAV BOX REHEAT COILDEMAND INLET NODE,Water,1
 Node,640,FLOOR 2 WAITING VAV BOX REHEAT COILDEMAND OUTLET NODE,Water,1
 Node,641,FLOOR 3 CLEAN VAV BOX REHEAT COILDEMAND INLET NODE,Water,1
 Node,642,FLOOR 3 CLEAN VAV BOX REHEAT COILDEMAND OUTLET NODE,Water,1
 Node,643,FLOOR 3 ELEVATOR VAV BOX REHEAT COILDEMAND INLET NODE,Water,1
 Node,644,FLOOR 3 ELEVATOR VAV BOX REHEAT COILDEMAND OUTLET NODE,Water,1
 Node,645,FLOOR 3 EXAM VAV BOX REHEAT COILDEMAND INLET NODE,Water,1
 Node,646,FLOOR 3 EXAM VAV BOX REHEAT COILDEMAND OUTLET NODE,Water,1
 Node,647,FLOOR 3 ICU VAV BOX REHEAT COILDEMAND INLET NODE,Water,1
 Node,648,FLOOR 3 ICU VAV BOX REHEAT COILDEMAND OUTLET NODE,Water,1
 Node,649,FLOOR 3 NURSE STATION 1 VAV BOX REHEAT COILDEMAND INLET NODE,Water,1
 Node,650,FLOOR 3 NURSE STATION 1 VAV BOX REHEAT COILDEMAND OUTLET NODE,Water,1
 Node,651,FLOOR 3 NURSE STATION 2 VAV BOX REHEAT COILDEMAND INLET NODE,Water,1
 Node,652,FLOOR 3 NURSE STATION 2 VAV BOX REHEAT COILDEMAND OUTLET NODE,Water,1
 Node,653,FLOOR 3 NURSERY VAV BOX REHEAT COILDEMAND INLET NODE,Water,1
 Node,654,FLOOR 3 NURSERY VAV BOX REHEAT COILDEMAND OUTLET NODE,Water,1
 Node,655,FLOOR 3 OFFICE VAV BOX REHEAT COILDEMAND INLET NODE,Water,1
 Node,656,FLOOR 3 OFFICE VAV BOX REHEAT COILDEMAND OUTLET NODE,Water,1
 Node,657,FLOOR 3 OPERATING VAV BOX REHEAT COILDEMAND INLET NODE,Water,1
 Node,658,FLOOR 3 OPERATING VAV BOX REHEAT COILDEMAND OUTLET NODE,Water,1
 Node,659,FLOOR 3 PATIENT 1 VAV BOX REHEAT COILDEMAND INLET NODE,Water,1
 Node,660,FLOOR 3 PATIENT 1 VAV BOX REHEAT COILDEMAND OUTLET NODE,Water,1
 Node,661,FLOOR 3 PATIENT 2 VAV BOX REHEAT COILDEMAND INLET NODE,Water,1
 Node,662,FLOOR 3 PATIENT 2 VAV BOX REHEAT COILDEMAND OUTLET NODE,Water,1
 Node,663,FLOOR 3 PATIENT 3 VAV BOX REHEAT COILDEMAND INLET NODE,Water,1
 Node,664,FLOOR 3 PATIENT 3 VAV BOX REHEAT COILDEMAND OUTLET NODE,Water,1
 Node,665,FLOOR 3 PATIENT 4 VAV BOX REHEAT COILDEMAND INLET NODE,Water,1
 Node,666,FLOOR 3 PATIENT 4 VAV BOX REHEAT COILDEMAND OUTLET NODE,Water,1
 Node,667,FLOOR 3 PATIENT CORRIDOR 1 VAV BOX REHEAT COILDEMAND INLET NODE,Water,1
 Node,668,FLOOR 3 PATIENT CORRIDOR 1 VAV BOX REHEAT COILDEMAND OUTLET NODE,Water,1
 Node,669,FLOOR 3 PATIENT CORRIDOR 2 VAV BOX REHEAT COILDEMAND INLET NODE,Water,1
 Node,670,FLOOR 3 PATIENT CORRIDOR 2 VAV BOX REHEAT COILDEMAND OUTLET NODE,Water,1
 Node,671,FLOOR 3 PROCEDURE VAV BOX REHEAT COILDEMAND INLET NODE,Water,1
 Node,672,FLOOR 3 PROCEDURE VAV BOX REHEAT COILDEMAND OUTLET NODE,Water,1
 Node,673,FLOOR 3 SOIL VAV BOX REHEAT COILDEMAND INLET NODE,Water,1
 Node,674,FLOOR 3 SOIL VAV BOX REHEAT COILDEMAND OUTLET NODE,Water,1
 Node,675,FLOOR 3 SUPPLY VAV BOX REHEAT COILDEMAND INLET NODE,Water,1
 Node,676,FLOOR 3 SUPPLY VAV BOX REHEAT COILDEMAND OUTLET NODE,Water,1
 Node,677,FLOOR 3 TRIAGE VAV BOX REHEAT COILDEMAND INLET NODE,Water,1
 Node,678,FLOOR 3 TRIAGE VAV BOX REHEAT COILDEMAND OUTLET NODE,Water,1
 Node,679,FLOOR 3 WAITING VAV BOX REHEAT COILDEMAND INLET NODE,Water,1
 Node,680,FLOOR 3 WAITING VAV BOX REHEAT COILDEMAND OUTLET NODE,Water,1
 Node,681,FLOOR 4-6 CLEAN VAV BOX REHEAT COILDEMAND INLET NODE,Water,1
 Node,682,FLOOR 4-6 CLEAN VAV BOX REHEAT COILDEMAND OUTLET NODE,Water,1
 Node,683,FLOOR 4-6 ELEVATOR VAV BOX REHEAT COILDEMAND INLET NODE,Water,1
 Node,684,FLOOR 4-6 ELEVATOR VAV BOX REHEAT COILDEMAND OUTLET NODE,Water,1
 Node,685,FLOOR 4-6 NURSE STATION VAV BOX REHEAT COILDEMAND INLET NODE,Water,1
 Node,686,FLOOR 4-6 NURSE STATION VAV BOX REHEAT COILDEMAND OUTLET NODE,Water,1
 Node,687,FLOOR 4-6 OFFICE VAV BOX REHEAT COILDEMAND INLET NODE,Water,1
 Node,688,FLOOR 4-6 OFFICE VAV BOX REHEAT COILDEMAND OUTLET NODE,Water,1
 Node,689,FLOOR 4-6 PATIENT 1 VAV BOX REHEAT COILDEMAND INLET NODE,Water,1
 Node,690,FLOOR 4-6 PATIENT 1 VAV BOX REHEAT COILDEMAND OUTLET NODE,Water,1
 Node,691,FLOOR 4-6 PATIENT 2 VAV BOX REHEAT COILDEMAND INLET NODE,Water,1
 Node,692,FLOOR 4-6 PATIENT 2 VAV BOX REHEAT COILDEMAND OUTLET NODE,Water,1
 Node,693,FLOOR 4-6 PATIENT 3 VAV BOX REHEAT COILDEMAND INLET NODE,Water,1
 Node,694,FLOOR 4-6 PATIENT 3 VAV BOX REHEAT COILDEMAND OUTLET NODE,Water,1
 Node,695,FLOOR 4-6 PATIENT 4 VAV BOX REHEAT COILDEMAND INLET NODE,Water,1
 Node,696,FLOOR 4-6 PATIENT 4 VAV BOX REHEAT COILDEMAND OUTLET NODE,Water,1
 Node,697,FLOOR 4-6 PATIENT CORRIDOR 1 VAV BOX REHEAT COILDEMAND INLET NODE,Water,1
 Node,698,FLOOR 4-6 PATIENT CORRIDOR 1 VAV BOX REHEAT COILDEMAND OUTLET NODE,Water,1
 Node,699,FLOOR 4-6 PATIENT CORRIDOR 2 VAV BOX REHEAT COILDEMAND INLET NODE,Water,1
 Node,700,FLOOR 4-6 PATIENT CORRIDOR 2 VAV BOX REHEAT COILDEMAND OUTLET NODE,Water,1
 Node,701,FLOOR 4-6 SOIL VAV BOX REHEAT COILDEMAND INLET NODE,Water,1
 Node,702,FLOOR 4-6 SOIL VAV BOX REHEAT COILDEMAND OUTLET NODE,Water,1
 Node,703,FLOOR 4-6 SUPPLY VAV BOX REHEAT COILDEMAND INLET NODE,Water,1
 Node,704,FLOOR 4-6 SUPPLY VAV BOX REHEAT COILDEMAND OUTLET NODE,Water,1
 Node,705,FLOOR 7 CLEAN VAV BOX REHEAT COILDEMAND INLET NODE,Water,1
 Node,706,FLOOR 7 CLEAN VAV BOX REHEAT COILDEMAND OUTLET NODE,Water,1
 Node,707,FLOOR 7 ELEVATOR VAV BOX REHEAT COILDEMAND INLET NODE,Water,1
 Node,708,FLOOR 7 ELEVATOR VAV BOX REHEAT COILDEMAND OUTLET NODE,Water,1
 Node,709,FLOOR 7 NURSE STATION VAV BOX REHEAT COILDEMAND INLET NODE,Water,1
 Node,710,FLOOR 7 NURSE STATION VAV BOX REHEAT COILDEMAND OUTLET NODE,Water,1
 Node,711,FLOOR 7 OFFICE VAV BOX REHEAT COILDEMAND INLET NODE,Water,1
 Node,712,FLOOR 7 OFFICE VAV BOX REHEAT COILDEMAND OUTLET NODE,Water,1
 Node,713,FLOOR 7 PATIENT 1 VAV BOX REHEAT COILDEMAND INLET NODE,Water,1
 Node,714,FLOOR 7 PATIENT 1 VAV BOX REHEAT COILDEMAND OUTLET NODE,Water,1
 Node,715,FLOOR 7 PATIENT 2 VAV BOX REHEAT COILDEMAND INLET NODE,Water,1
 Node,716,FLOOR 7 PATIENT 2 VAV BOX REHEAT COILDEMAND OUTLET NODE,Water,1
 Node,717,FLOOR 7 PATIENT 3 VAV BOX REHEAT COILDEMAND INLET NODE,Water,1
 Node,718,FLOOR 7 PATIENT 3 VAV BOX REHEAT COILDEMAND OUTLET NODE,Water,1
 Node,719,FLOOR 7 PATIENT 4 VAV BOX REHEAT COILDEMAND INLET NODE,Water,1
 Node,720,FLOOR 7 PATIENT 4 VAV BOX REHEAT COILDEMAND OUTLET NODE,Water,1
 Node,721,FLOOR 7 PATIENT CORRIDOR 1 VAV BOX REHEAT COILDEMAND INLET NODE,Water,1
 Node,722,FLOOR 7 PATIENT CORRIDOR 1 VAV BOX REHEAT COILDEMAND OUTLET NODE,Water,1
 Node,723,FLOOR 7 PATIENT CORRIDOR 2 VAV BOX REHEAT COILDEMAND INLET NODE,Water,1
 Node,724,FLOOR 7 PATIENT CORRIDOR 2 VAV BOX REHEAT COILDEMAND OUTLET NODE,Water,1
 Node,725,FLOOR 7 SOIL VAV BOX REHEAT COILDEMAND INLET NODE,Water,1
 Node,726,FLOOR 7 SOIL VAV BOX REHEAT COILDEMAND OUTLET NODE,Water,1
 Node,727,FLOOR 7 SUPPLY VAV BOX REHEAT COILDEMAND INLET NODE,Water,1
 Node,728,FLOOR 7 SUPPLY VAV BOX REHEAT COILDEMAND OUTLET NODE,Water,1
 Node,729,MOB FLOOR 1 CORE VAV BOX REHEAT COILDEMAND INLET NODE,Water,1
 Node,730,MOB FLOOR 1 CORE VAV BOX REHEAT COILDEMAND OUTLET NODE,Water,1
 Node,731,MOB FLOOR 1 PERIMETER 1 VAV BOX REHEAT COILDEMAND INLET NODE,Water,1
 Node,732,MOB FLOOR 1 PERIMETER 1 VAV BOX REHEAT COILDEMAND OUTLET NODE,Water,1
 Node,733,MOB FLOOR 1 PERIMETER 2 VAV BOX REHEAT COILDEMAND INLET NODE,Water,1
 Node,734,MOB FLOOR 1 PERIMETER 2 VAV BOX REHEAT COILDEMAND OUTLET NODE,Water,1
 Node,735,MOB FLOOR 1 PERIMETER 3 VAV BOX REHEAT COILDEMAND INLET NODE,Water,1
 Node,736,MOB FLOOR 1 PERIMETER 3 VAV BOX REHEAT COILDEMAND OUTLET NODE,Water,1
 Node,737,MOB FLOOR 2-4 CORE VAV BOX REHEAT COILDEMAND INLET NODE,Water,1
 Node,738,MOB FLOOR 2-4 CORE VAV BOX REHEAT COILDEMAND OUTLET NODE,Water,1
 Node,739,MOB FLOOR 2-4 PERIMETER 1 VAV BOX REHEAT COILDEMAND INLET NODE,Water,1
 Node,740,MOB FLOOR 2-4 PERIMETER 1 VAV BOX REHEAT COILDEMAND OUTLET NODE,Water,1
 Node,741,MOB FLOOR 2-4 PERIMETER 2 VAV BOX REHEAT COILDEMAND INLET NODE,Water,1
 Node,742,MOB FLOOR 2-4 PERIMETER 2 VAV BOX REHEAT COILDEMAND OUTLET NODE,Water,1
 Node,743,MOB FLOOR 2-4 PERIMETER 3 VAV BOX REHEAT COILDEMAND INLET NODE,Water,1
 Node,744,MOB FLOOR 2-4 PERIMETER 3 VAV BOX REHEAT COILDEMAND OUTLET NODE,Water,1
 Node,745,MOB FLOOR 2-4 PERIMETER 4 VAV BOX REHEAT COILDEMAND INLET NODE,Water,1
 Node,746,MOB FLOOR 2-4 PERIMETER 4 VAV BOX REHEAT COILDEMAND OUTLET NODE,Water,1
 Node,747,MOB FLOOR 5 CORE VAV BOX REHEAT COILDEMAND INLET NODE,Water,1
 Node,748,MOB FLOOR 5 CORE VAV BOX REHEAT COILDEMAND OUTLET NODE,Water,1
 Node,749,MOB FLOOR 5 PERIMETER 1 VAV BOX REHEAT COILDEMAND INLET NODE,Water,1
 Node,750,MOB FLOOR 5 PERIMETER 1 VAV BOX REHEAT COILDEMAND OUTLET NODE,Water,1
 Node,751,MOB FLOOR 5 PERIMETER 2 VAV BOX REHEAT COILDEMAND INLET NODE,Water,1
 Node,752,MOB FLOOR 5 PERIMETER 2 VAV BOX REHEAT COILDEMAND OUTLET NODE,Water,1
 Node,753,MOB FLOOR 5 PERIMETER 3 VAV BOX REHEAT COILDEMAND INLET NODE,Water,1
 Node,754,MOB FLOOR 5 PERIMETER 3 VAV BOX REHEAT COILDEMAND OUTLET NODE,Water,1
 Node,755,MOB FLOOR 5 PERIMETER 4 VAV BOX REHEAT COILDEMAND INLET NODE,Water,1
 Node,756,MOB FLOOR 5 PERIMETER 4 VAV BOX REHEAT COILDEMAND OUTLET NODE,Water,1
 Node,757,AHU2_HEATC 1DEMAND INLET NODE,Water,2
 Node,758,AHU2_HEATC 1DEMAND OUTLET NODE,Water,1
 Node,759,AHU2_HEATC 2DEMAND INLET NODE,Water,2
 Node,760,AHU2_HEATC 2DEMAND OUTLET NODE,Water,1
 Node,761,AHU2_HEATC 3DEMAND INLET NODE,Water,2
 Node,762,AHU2_HEATC 3DEMAND OUTLET NODE,Water,1
 Node,763,AHU2_HEATC 4DEMAND INLET NODE,Water,2
 Node,764,AHU2_HEATC 4DEMAND OUTLET NODE,Water,1
 Node,765,AHU1_HEATC 1DEMAND INLET NODE,Water,2
 Node,766,AHU1_HEATC 1DEMAND OUTLET NODE,Water,1
 Node,767,AHU1_HEATC 2DEMAND INLET NODE,Water,2
 Node,768,AHU1_HEATC 2DEMAND OUTLET NODE,Water,1
 Node,769,AHU1_HEATC 3DEMAND INLET NODE,Water,2
 Node,770,AHU1_HEATC 3DEMAND OUTLET NODE,Water,1
 Node,771,AHU1_HEATC 4DEMAND INLET NODE,Water,2
 Node,772,AHU1_HEATC 4DEMAND OUTLET NODE,Water,1
 Node,773,AHU3_HEATC 1DEMAND INLET NODE,Water,2
 Node,774,AHU3_HEATC 1DEMAND OUTLET NODE,Water,1
 Node,775,AHU3_HEATC 2DEMAND INLET NODE,Water,2
 Node,776,AHU3_HEATC 2DEMAND OUTLET NODE,Water,1
 Node,777,AHU3_HEATC 3DEMAND INLET NODE,Water,2
 Node,778,AHU3_HEATC 3DEMAND OUTLET NODE,Water,1
 Node,779,AHU3_HEATC 4DEMAND INLET NODE,Water,2
 Node,780,AHU3_HEATC 4DEMAND OUTLET NODE,Water,1
 Node,781,AHU5_HEATC 1DEMAND INLET NODE,Water,2
 Node,782,AHU5_HEATC 1DEMAND OUTLET NODE,Water,1
 Node,783,AHU5_HEATC 2DEMAND INLET NODE,Water,2
 Node,784,AHU5_HEATC 2DEMAND OUTLET NODE,Water,1
 Node,785,AHU5_HEATC 3DEMAND INLET NODE,Water,2
 Node,786,AHU5_HEATC 3DEMAND OUTLET NODE,Water,1
 Node,787,AHU5_HEATC 4DEMAND INLET NODE,Water,2
 Node,788,AHU5_HEATC 4DEMAND OUTLET NODE,Water,1
 Node,789,AHU4_HEATC 1DEMAND INLET NODE,Water,2
 Node,790,AHU4_HEATC 1DEMAND OUTLET NODE,Water,1
 Node,791,AHU4_HEATC 2DEMAND INLET NODE,Water,2
 Node,792,AHU4_HEATC 2DEMAND OUTLET NODE,Water,1
 Node,793,AHU4_HEATC 3DEMAND INLET NODE,Water,2
 Node,794,AHU4_HEATC 3DEMAND OUTLET NODE,Water,1
 Node,795,AHU4_HEATC 4DEMAND INLET NODE,Water,2
 Node,796,AHU4_HEATC 4DEMAND OUTLET NODE,Water,1
 Node,797,AHU6_HEATC 1DEMAND INLET NODE,Water,2
 Node,798,AHU6_HEATC 1DEMAND OUTLET NODE,Water,1
 Node,799,AHU6_HEATC 2DEMAND INLET NODE,Water,2
 Node,800,AHU6_HEATC 2DEMAND OUTLET NODE,Water,1
 Node,801,AHU6_HEATC 3DEMAND INLET NODE,Water,2
 Node,802,AHU6_HEATC 3DEMAND OUTLET NODE,Water,1
 Node,803,AHU6_HEATC 4DEMAND INLET NODE,Water,2
 Node,804,AHU6_HEATC 4DEMAND OUTLET NODE,Water,1
 Node,805,HEATSYS1 DEMAND BYPASS PIPE INLET NODE,Water,1
 Node,806,HEATSYS1 DEMAND BYPASS PIPE OUTLET NODE,Water,1
 Node,807,HEATSYS1 DEMAND MIXER-HEATSYS1 DEMAND OUTLET PIPE,Water,1
 Node,808,HEATSYS1 DEMAND OUTLET NODE,Water,2
 Node,809,COOLSYS1 SUPPLY INLET NODE,Water,2
 Node,810,COOLSYS1 PUMP-COOLSYS1 CHILLERNODEVIACONNECTOR,Water,1
 Node,811,COOLSYS1 PUMP-COOLSYS1 CHILLERNODE,Water,1
 Node,812,COOLSYS1 SUPPLY EQUIPMENT OUTLET NODE,Water,2
 Node,813,COOLSYS1 SUPPLY EQUIP BYPASS INLET NODE,Water,1
 Node,814,COOLSYS1 SUPPLY EQUIP BYPASS OUTLET NODE,Water,1
 Node,815,COOLSYS1 SUPPLY MIXER-COOLSYS1 SUPPLY OUTLET PIPE,Water,1
 Node,816,COOLSYS1 SUPPLY OUTLET NODE,Water,4
 Node,817,COOLSYS1 DEMAND INLET NODE,Water,2
 Node,818,COOLSYS1 DEMAND INLET PIPE-COOLSYS1 DEMAND MIXER,Water,1
 Node,819,AHU2_COOLC 1DEMAND INLET NODE,Water,2
 Node,820,AHU2_COOLC 1DEMAND OUTLET NODE,Water,1
 Node,821,AHU2_COOLC 2DEMAND INLET NODE,Water,2
 Node,822,AHU2_COOLC 2DEMAND OUTLET NODE,Water,1
 Node,823,AHU1_COOLC 1DEMAND INLET NODE,Water,2
 Node,824,AHU1_COOLC 1DEMAND OUTLET NODE,Water,1
 Node,825,AHU1_COOLC 2DEMAND INLET NODE,Water,2
 Node,826,AHU1_COOLC 2DEMAND OUTLET NODE,Water,1
 Node,827,AHU3_COOLC 1DEMAND INLET NODE,Water,2
 Node,828,AHU3_COOLC 1DEMAND OUTLET NODE,Water,1
 Node,829,AHU3_COOLC 2DEMAND INLET NODE,Water,2
 Node,830,AHU3_COOLC 2DEMAND OUTLET NODE,Water,1
 Node,831,AHU5_COOLC 1DEMAND INLET NODE,Water,2
 Node,832,AHU5_COOLC 1DEMAND OUTLET NODE,Water,1
 Node,833,AHU5_COOLC 2DEMAND INLET NODE,Water,2
 Node,834,AHU5_COOLC 2DEMAND OUTLET NODE,Water,1
 Node,835,AHU4_COOLC 1DEMAND INLET NODE,Water,2
 Node,836,AHU4_COOLC 1DEMAND OUTLET NODE,Water,1
 Node,837,AHU4_COOLC 2DEMAND INLET NODE,Water,2
 Node,838,AHU4_COOLC 2DEMAND OUTLET NODE,Water,1
 Node,839,AHU6_COOLC 1DEMAND INLET NODE,Water,2
 Node,840,AHU6_COOLC 1DEMAND OUTLET NODE,Water,1
 Node,841,AHU6_COOLC 2DEMAND INLET NODE,Water,2
 Node,842,AHU6_COOLC 2DEMAND OUTLET NODE,Water,1
 Node,843,COOLSYS1 DEMAND BYPASS PIPE INLET NODE,Water,1
 Node,844,COOLSYS1 DEMAND BYPASS PIPE OUTLET NODE,Water,1
 Node,845,COOLSYS1 DEMAND MIXER-COOLSYS1 DEMAND OUTLET PIPE,Water,1
 Node,846,COOLSYS1 DEMAND OUTLET NODE,Water,2
 Node,847,COOLSYS1 CHILLER TOWERSYS SUPPLY INLET NODE,Water,2
 Node,848,COOLSYS1 CHILLER TOWERSYS PUMP-COOLSYS1 CHILLER TOWERSYS COOLTOWERNODEVIACONNECTOR,Water,1
 Node,849,COOLSYS1 CHILLER TOWERSYS PUMP-COOLSYS1 CHILLER TOWERSYS COOLTOWERNODE,Water,1
 Node,850,COOLSYS1 CHILLER TOWERSYS SUPPLY EQUIPMENT OUTLET NODE,Water,1
 Node,851,COOLSYS1 CHILLER TOWERSYS SUPPLY EQUIP BYPASS INLET NODE,Water,1
 Node,852,COOLSYS1 CHILLER TOWERSYS SUPPLY EQUIP BYPASS OUTLET NODE,Water,1
 Node,853,COOLSYS1 CHILLER TOWERSYS SUPPLY MIXER-COOLSYS1 CHILLER TOWERSYS SUPPLY OUTLET PIPE,Water,1
 Node,854,COOLSYS1 CHILLER TOWERSYS SUPPLY OUTLET NODE,Water,4
 Node,855,COOLSYS1 CHILLER TOWERSYS DEMAND INLET NODE,Water,2
 Node,856,COOLSYS1 CHILLER TOWERSYS DEMAND INLET PIPE-COOLSYS1 CHILLER TOWERSYS DEMAND MIXER,Water,1
 Node,857,COOLSYS1 CHILLER WATER INLET NODE,Water,1
 Node,858,COOLSYS1 CHILLER WATER OUTLET NODE,Water,1
 Node,859,COOLSYS1 CHILLER TOWERSYS DEMAND BYPASS PIPE INLET NODE,Water,1
 Node,860,COOLSYS1 CHILLER TOWERSYS DEMAND BYPASS PIPE OUTLET NODE,Water,1
 Node,861,COOLSYS1 CHILLER TOWERSYS DEMAND MIXER-COOLSYS1 CHILLER TOWERSYS DEMAND OUTLET PIPE,Water,1
 Node,862,COOLSYS1 CHILLER TOWERSYS DEMAND OUTLET NODE,Water,2
 Node,863,FLOOR 1 CAFE AIR NODE,Air,0
 Node,864,FLOOR 1 CAFE RETURN AIR NODE NAME,Air,1
 Node,865,FLOOR 1 CLEAN AIR NODE,Air,0
 Node,866,FLOOR 1 CLEAN RETURN AIR NODE NAME,Air,1
 Node,867,FLOOR 1 CONFERENCE AIR NODE,Air,0
 Node,868,FLOOR 1 CONFERENCE RETURN AIR NODE NAME,Air,1
 Node,869,FLOOR 1 DINING AIR NODE,Air,0
 Node,870,FLOOR 1 DINING RETURN AIR NODE NAME,Air,1
 Node,871,FLOOR 1 ELEVATOR AIR NODE,Air,0
 Node,872,FLOOR 1 ELEVATOR RETURN AIR NODE NAME,Air,1
 Node,873,FLOOR 1 EXAM AIR NODE,Air,0
 Node,874,FLOOR 1 EXAM RETURN AIR NODE NAME,Air,1
 Node,875,FLOOR 1 FOOD STORAGE AIR NODE,Air,0
 Node,876,FLOOR 1 FOOD STORAGE RETURN AIR NODE NAME,Air,1
 Node,877,FLOOR 1 GAS STORAGE AIR NODE,Air,0
 Node,878,FLOOR 1 GAS STORAGE RETURN AIR NODE NAME,Air,1
 Node,879,FLOOR 1 IMAGING AIR NODE,Air,0
 Node,880,FLOOR 1 IMAGING RETURN AIR NODE NAME,Air,1
 Node,881,FLOOR 1 KITCHEN AIR NODE,Air,0
 Node,882,FLOOR 1 KITCHEN RETURN AIR NODE NAME,Air,1
 Node,883,FLOOR 1 LAB 1 AIR NODE,Air,0
 Node,884,FLOOR 1 LAB 1 RETURN AIR NODE NAME,Air,1
 Node,885,FLOOR 1 LAB 2 AIR NODE,Air,0
 Node,886,FLOOR 1 LAB 2 RETURN AIR NODE NAME,Air,1
 Node,887,FLOOR 1 LAUNDRY AIR NODE,Air,0
 Node,888,FLOOR 1 LAUNDRY RETURN AIR NODE NAME,Air,1
 Node,889,FLOOR 1 LOBBY AIR NODE,Air,0
 Node,890,FLOOR 1 LOBBY RETURN AIR NODE NAME,Air,1
 Node,891,FLOOR 1 LOUNGE AIR NODE,Air,0
 Node,892,FLOOR 1 LOUNGE RETURN AIR NODE NAME,Air,1
 Node,893,FLOOR 1 MECH 1 AIR NODE,Air,0
 Node,894,FLOOR 1 MECH 1 RETURN AIR NODE NAME,Air,1
 Node,895,FLOOR 1 MECH 2 AIR NODE,Air,0
 Node,896,FLOOR 1 MECH 2 RETURN AIR NODE NAME,Air,1
 Node,897,FLOOR 1 OFFICE 1 AIR NODE,Air,0
 Node,898,FLOOR 1 OFFICE 1 RETURN AIR NODE NAME,Air,1
 Node,899,FLOOR 1 OFFICE 2 AIR NODE,Air,0
 Node,900,FLOOR 1 OFFICE 2 RETURN AIR NODE NAME,Air,1
 Node,901,FLOOR 1 OFFICE 3 AIR NODE,Air,0
 Node,902,FLOOR 1 OFFICE 3 RETURN AIR NODE NAME,Air,1
 Node,903,FLOOR 1 OFFICE 3 PERIMETER 1 AIR NODE,Air,0
 Node,904,FLOOR 1 OFFICE 3 PERIMETER 1 RETURN AIR NODE NAME,Air,1
 Node,905,FLOOR 1 OFFICE 3 PERIMETER 2 AIR NODE,Air,0
 Node,906,FLOOR 1 OFFICE 3 PERIMETER 2 RETURN AIR NODE NAME,Air,1
 Node,907,FLOOR 1 OFFICE 3 PERIMETER 3 AIR NODE,Air,0
 Node,908,FLOOR 1 OFFICE 3 PERIMETER 3 RETURN AIR NODE NAME,Air,1
 Node,909,FLOOR 1 PATIENT AIR NODE,Air,0
 Node,910,FLOOR 1 PATIENT RETURN AIR NODE NAME,Air,1
 Node,911,FLOOR 1 PHARMACY AIR NODE,Air,0
 Node,912,FLOOR 1 PHARMACY RETURN AIR NODE NAME,Air,1
 Node,913,FLOOR 1 PHYSICAL THERAPY AIR NODE,Air,0
 Node,914,FLOOR 1 PHYSICAL THERAPY RETURN AIR NODE NAME,Air,1
 Node,915,FLOOR 1 RECEIVING AIR NODE,Air,0
 Node,916,FLOOR 1 RECEIVING RETURN AIR NODE NAME,Air,1
 Node,917,FLOOR 1 RECEPTION AIR NODE,Air,0
 Node,918,FLOOR 1 RECEPTION RETURN AIR NODE NAME,Air,1
 Node,919,FLOOR 1 SOIL AIR NODE,Air,0
 Node,920,FLOOR 1 SOIL RETURN AIR NODE NAME,Air,1
 Node,921,FLOOR 1 STORAGE AIR NODE,Air,0
 Node,922,FLOOR 1 STORAGE RETURN AIR NODE NAME,Air,1
 Node,923,FLOOR 1 WAITING AIR NODE,Air,0
 Node,924,FLOOR 1 WAITING RETURN AIR NODE NAME,Air,1
 Node,925,FLOOR 2 CHAPEL AIR NODE,Air,0
 Node,926,FLOOR 2 CHAPEL RETURN AIR NODE NAME,Air,1
 Node,927,FLOOR 2 CLEAN 1 AIR NODE,Air,0
 Node,928,FLOOR 2 CLEAN 1 RETURN AIR NODE NAME,Air,1
 Node,929,FLOOR 2 CLEAN 2 AIR NODE,Air,0
 Node,930,FLOOR 2 CLEAN 2 RETURN AIR NODE NAME,Air,1
 Node,931,FLOOR 2 CORRIDOR AIR NODE,Air,0
 Node,932,FLOOR 2 CORRIDOR RETURN AIR NODE NAME,Air,1
 Node,933,FLOOR 2 ELEVATOR AIR NODE,Air,0
 Node,934,FLOOR 2 ELEVATOR RETURN AIR NODE NAME,Air,1
 Node,935,FLOOR 2 EXAM 1 AIR NODE,Air,0
 Node,936,FLOOR 2 EXAM 1 RETURN AIR NODE NAME,Air,1
 Node,937,FLOOR 2 EXAM 2 AIR NODE,Air,0
 Node,938,FLOOR 2 EXAM 2 RETURN AIR NODE NAME,Air,1
 Node,939,FLOOR 2 EXAM 3 AIR NODE,Air,0
 Node,940,FLOOR 2 EXAM 3 RETURN AIR NODE NAME,Air,1
 Node,941,FLOOR 2 EXAM 4 AIR NODE,Air,0
 Node,942,FLOOR 2 EXAM 4 RETURN AIR NODE NAME,Air,1
 Node,943,FLOOR 2 GIFT SHOP AIR NODE,Air,0
 Node,944,FLOOR 2 GIFT SHOP RETURN AIR NODE NAME,Air,1
 Node,945,FLOOR 2 IMAGING 1 AIR NODE,Air,0
 Node,946,FLOOR 2 IMAGING 1 RETURN AIR NODE NAME,Air,1
 Node,947,FLOOR 2 IMAGING 2 AIR NODE,Air,0
 Node,948,FLOOR 2 IMAGING 2 RETURN AIR NODE NAME,Air,1
 Node,949,FLOOR 2 IMAGING 3 AIR NODE,Air,0
 Node,950,FLOOR 2 IMAGING 3 RETURN AIR NODE NAME,Air,1
 Node,951,FLOOR 2 LAB 1 AIR NODE,Air,3
 Node,952,FLOOR 2 LAB 1 RETURN AIR NODE NAME,Air,1
 Node,953,FLOOR 2 LAB 2 AIR NODE,Air,0
 Node,954,FLOOR 2 LAB 2 RETURN AIR NODE NAME,Air,1
 Node,955,FLOOR 2 LOCKERS AIR NODE,Air,0
 Node,956,FLOOR 2 LOCKERS RETURN AIR NODE NAME,Air,1
 Node,957,FLOOR 2 LOUNGE 1 AIR NODE,Air,0
 Node,958,FLOOR 2 LOUNGE 1 RETURN AIR NODE NAME,Air,1
 Node,959,FLOOR 2 LOUNGE 2 AIR NODE,Air,0
 Node,960,FLOOR 2 LOUNGE 2 RETURN AIR NODE NAME,Air,1
 Node,961,FLOOR 2 NURSE STATION 1 AIR NODE,Air,0
 Node,962,FLOOR 2 NURSE STATION 1 RETURN AIR NODE NAME,Air,1
 Node,963,FLOOR 2 NURSE STATION 2 AIR NODE,Air,0
 Node,964,FLOOR 2 NURSE STATION 2 RETURN AIR NODE NAME,Air,1
 Node,965,FLOOR 2 OFFICE 1 AIR NODE,Air,0
 Node,966,FLOOR 2 OFFICE 1 RETURN AIR NODE NAME,Air,1
 Node,967,FLOOR 2 OFFICE 2 AIR NODE,Air,0
 Node,968,FLOOR 2 OFFICE 2 RETURN AIR NODE NAME,Air,1
 Node,969,FLOOR 2 OFFICE 3 AIR NODE,Air,0
 Node,970,FLOOR 2 OFFICE 3 RETURN AIR NODE NAME,Air,1
 Node,971,FLOOR 2 OFFICE 4 AIR NODE,Air,0
 Node,972,FLOOR 2 OFFICE 4 RETURN AIR NODE NAME,Air,1
 Node,973,FLOOR 2 OPERATING AIR NODE,Air,3
 Node,974,FLOOR 2 OPERATING RETURN AIR NODE NAME,Air,1
 Node,975,FLOOR 2 PACU AIR NODE,Air,0
 Node,976,FLOOR 2 PACU RETURN AIR NODE NAME,Air,1
 Node,977,FLOOR 2 PATIENT 1 AIR NODE,Air,0
 Node,978,FLOOR 2 PATIENT 1 RETURN AIR NODE NAME,Air,1
 Node,979,FLOOR 2 PATIENT 2 AIR NODE,Air,0
 Node,980,FLOOR 2 PATIENT 2 RETURN AIR NODE NAME,Air,1
 Node,981,FLOOR 2 PROCEDURE 1 AIR NODE,Air,0
 Node,982,FLOOR 2 PROCEDURE 1 RETURN AIR NODE NAME,Air,1
 Node,983,FLOOR 2 PROCEDURE 2 AIR NODE,Air,0
 Node,984,FLOOR 2 PROCEDURE 2 RETURN AIR NODE NAME,Air,1
 Node,985,FLOOR 2 RECEPTION AIR NODE,Air,0
 Node,986,FLOOR 2 RECEPTION RETURN AIR NODE NAME,Air,1
 Node,987,FLOOR 2 RESTROOM 1 AIR NODE,Air,0
 Node,988,FLOOR 2 RESTROOM 1 RETURN AIR NODE NAME,Air,1
 Node,989,FLOOR 2 RESTROOM 2 AIR NODE,Air,0
 Node,990,FLOOR 2 RESTROOM 2 RETURN AIR NODE NAME,Air,1
 Node,991,FLOOR 2 SOIL 1 AIR NODE,Air,0
 Node,992,FLOOR 2 SOIL 1 RETURN AIR NODE NAME,Air,1
 Node,993,FLOOR 2 SOIL 2 AIR NODE,Air,0
 Node,994,FLOOR 2 SOIL 2 RETURN AIR NODE NAME,Air,1
 Node,995,FLOOR 2 STERILIZING AIR NODE,Air,0
 Node,996,FLOOR 2 STERILIZING RETURN AIR NODE NAME,Air,1
 Node,997,FLOOR 2 STORAGE 1 AIR NODE,Air,0
 Node,998,FLOOR 2 STORAGE 1 RETURN AIR NODE NAME,Air,1
 Node,999,FLOOR 2 STORAGE 2 AIR NODE,Air,0
 Node,1000,FLOOR 2 STORAGE 2 RETURN AIR NODE NAME,Air,1
 Node,1001,FLOOR 2 TRAUMA AIR NODE,Air,0
 Node,1002,FLOOR 2 TRAUMA RETURN AIR NODE NAME,Air,1
 Node,1003,FLOOR 2 TRIAGE AIR NODE,Air,3
 Node,1004,FLOOR 2 TRIAGE RETURN AIR NODE NAME,Air,1
 Node,1005,FLOOR 2 WAITING AIR NODE,Air,0
 Node,1006,FLOOR 2 WAITING RETURN AIR NODE NAME,Air,1
 Node,1007,FLOOR 3 CLEAN AIR NODE,Air,0
 Node,1008,FLOOR 3 CLEAN RETURN AIR NODE NAME,Air,1
 Node,1009,FLOOR 3 ELEVATOR AIR NODE,Air,0
 Node,1010,FLOOR 3 ELEVATOR RETURN AIR NODE NAME,Air,1
 Node,1011,FLOOR 3 EXAM AIR NODE,Air,0
 Node,1012,FLOOR 3 EXAM RETURN AIR NODE NAME,Air,1
 Node,1013,FLOOR 3 ICU AIR NODE,Air,3
 Node,1014,FLOOR 3 ICU RETURN AIR NODE NAME,Air,1
 Node,1015,FLOOR 3 NURSE STATION 1 AIR NODE,Air,0
 Node,1016,FLOOR 3 NURSE STATION 1 RETURN AIR NODE NAME,Air,1
 Node,1017,FLOOR 3 NURSE STATION 2 AIR NODE,Air,0
 Node,1018,FLOOR 3 NURSE STATION 2 RETURN AIR NODE NAME,Air,1
 Node,1019,FLOOR 3 NURSERY AIR NODE,Air,0
 Node,1020,FLOOR 3 NURSERY RETURN AIR NODE NAME,Air,1
 Node,1021,FLOOR 3 OFFICE AIR NODE,Air,0
 Node,1022,FLOOR 3 OFFICE RETURN AIR NODE NAME,Air,1
 Node,1023,FLOOR 3 OPERATING AIR NODE,Air,0
 Node,1024,FLOOR 3 OPERATING RETURN AIR NODE NAME,Air,1
 Node,1025,FLOOR 3 PATIENT 1 AIR NODE,Air,0
 Node,1026,FLOOR 3 PATIENT 1 RETURN AIR NODE NAME,Air,1
 Node,1027,FLOOR 3 PATIENT 2 AIR NODE,Air,0
 Node,1028,FLOOR 3 PATIENT 2 RETURN AIR NODE NAME,Air,1
 Node,1029,FLOOR 3 PATIENT 3 AIR NODE,Air,0
 Node,1030,FLOOR 3 PATIENT 3 RETURN AIR NODE NAME,Air,1
 Node,1031,FLOOR 3 PATIENT 4 AIR NODE,Air,0
 Node,1032,FLOOR 3 PATIENT 4 RETURN AIR NODE NAME,Air,1
 Node,1033,FLOOR 3 PATIENT CORRIDOR 1 AIR NODE,Air,0
 Node,1034,FLOOR 3 PATIENT CORRIDOR 1 RETURN AIR NODE NAME,Air,1
 Node,1035,FLOOR 3 PATIENT CORRIDOR 2 AIR NODE,Air,0
 Node,1036,FLOOR 3 PATIENT CORRIDOR 2 RETURN AIR NODE NAME,Air,1
 Node,1037,FLOOR 3 PROCEDURE AIR NODE,Air,0
 Node,1038,FLOOR 3 PROCEDURE RETURN AIR NODE NAME,Air,1
 Node,1039,FLOOR 3 SOIL AIR NODE,Air,0
 Node,1040,FLOOR 3 SOIL RETURN AIR NODE NAME,Air,1
 Node,1041,FLOOR 3 SUPPLY AIR NODE,Air,0
 Node,1042,FLOOR 3 SUPPLY RETURN AIR NODE NAME,Air,1
 Node,1043,FLOOR 3 TRIAGE AIR NODE,Air,3
 Node,1044,FLOOR 3 TRIAGE RETURN AIR NODE NAME,Air,1
 Node,1045,FLOOR 3 WAITING AIR NODE,Air,0
 Node,1046,FLOOR 3 WAITING RETURN AIR NODE NAME,Air,1
 Node,1047,FLOOR 4-6 CLEAN AIR NODE,Air,0
 Node,1048,FLOOR 4-6 CLEAN RETURN AIR NODE NAME,Air,1
 Node,1049,FLOOR 4-6 ELEVATOR AIR NODE,Air,0
 Node,1050,FLOOR 4-6 ELEVATOR RETURN AIR NODE NAME,Air,1
 Node,1051,FLOOR 4-6 NURSE STATION AIR NODE,Air,0
 Node,1052,FLOOR 4-6 NURSE STATION RETURN AIR NODE NAME,Air,1
 Node,1053,FLOOR 4-6 OFFICE AIR NODE,Air,0
 Node,1054,FLOOR 4-6 OFFICE RETURN AIR NODE NAME,Air,1
 Node,1055,FLOOR 4-6 PATIENT 1 AIR NODE,Air,0
 Node,1056,FLOOR 4-6 PATIENT 1 RETURN AIR NODE NAME,Air,1
 Node,1057,FLOOR 4-6 PATIENT 2 AIR NODE,Air,0
 Node,1058,FLOOR 4-6 PATIENT 2 RETURN AIR NODE NAME,Air,1
 Node,1059,FLOOR 4-6 PATIENT 3 AIR NODE,Air,0
 Node,1060,FLOOR 4-6 PATIENT 3 RETURN AIR NODE NAME,Air,1
 Node,1061,FLOOR 4-6 PATIENT 4 AIR NODE,Air,0
 Node,1062,FLOOR 4-6 PATIENT 4 RETURN AIR NODE NAME,Air,1
 Node,1063,FLOOR 4-6 PATIENT CORRIDOR 1 AIR NODE,Air,0
 Node,1064,FLOOR 4-6 PATIENT CORRIDOR 1 RETURN AIR NODE NAME,Air,1
 Node,1065,FLOOR 4-6 PATIENT CORRIDOR 2 AIR NODE,Air,0
 Node,1066,FLOOR 4-6 PATIENT CORRIDOR 2 RETURN AIR NODE NAME,Air,1
 Node,1067,FLOOR 4-6 SOIL AIR NODE,Air,0
 Node,1068,FLOOR 4-6 SOIL RETURN AIR NODE NAME,Air,1
 Node,1069,FLOOR 4-6 SUPPLY AIR NODE,Air,0
 Node,1070,FLOOR 4-6 SUPPLY RETURN AIR NODE NAME,Air,1
 Node,1071,FLOOR 7 CLEAN AIR NODE,Air,0
 Node,1072,FLOOR 7 CLEAN RETURN AIR NODE NAME,Air,1
 Node,1073,FLOOR 7 ELEVATOR AIR NODE,Air,0
 Node,1074,FLOOR 7 ELEVATOR RETURN AIR NODE NAME,Air,1
 Node,1075,FLOOR 7 NURSE STATION AIR NODE,Air,0
 Node,1076,FLOOR 7 NURSE STATION RETURN AIR NODE NAME,Air,1
 Node,1077,FLOOR 7 OFFICE AIR NODE,Air,0
 Node,1078,FLOOR 7 OFFICE RETURN AIR NODE NAME,Air,1
 Node,1079,FLOOR 7 PATIENT 1 AIR NODE,Air,0
 Node,1080,FLOOR 7 PATIENT 1 RETURN AIR NODE NAME,Air,1
 Node,1081,FLOOR 7 PATIENT 2 AIR NODE,Air,0
 Node,1082,FLOOR 7 PATIENT 2 RETURN AIR NODE NAME,Air,1
 Node,1083,FLOOR 7 PATIENT 3 AIR NODE,Air,0
 Node,1084,FLOOR 7 PATIENT 3 RETURN AIR NODE NAME,Air,1
 Node,1085,FLOOR 7 PATIENT 4 AIR NODE,Air,0
 Node,1086,FLOOR 7 PATIENT 4 RETURN AIR NODE NAME,Air,1
 Node,1087,FLOOR 7 PATIENT CORRIDOR 1 AIR NODE,Air,0
 Node,1088,FLOOR 7 PATIENT CORRIDOR 1 RETURN AIR NODE NAME,Air,1
 Node,1089,FLOOR 7 PATIENT CORRIDOR 2 AIR NODE,Air,0
 Node,1090,FLOOR 7 PATIENT CORRIDOR 2 RETURN AIR NODE NAME,Air,1
 Node,1091,FLOOR 7 SOIL AIR NODE,Air,0
 Node,1092,FLOOR 7 SOIL RETURN AIR NODE NAME,Air,1
 Node,1093,FLOOR 7 SUPPLY AIR NODE,Air,0
 Node,1094,FLOOR 7 SUPPLY RETURN AIR NODE NAME,Air,1
 Node,1095,MOB FLOOR 1 CORE AIR NODE,Air,0
 Node,1096,MOB FLOOR 1 CORE RETURN AIR NODE NAME,Air,1
 Node,1097,MOB FLOOR 1 PERIMETER 1 AIR NODE,Air,0
 Node,1098,MOB FLOOR 1 PERIMETER 1 RETURN AIR NODE NAME,Air,1
 Node,1099,MOB FLOOR 1 PERIMETER 2 AIR NODE,Air,0
 Node,1100,MOB FLOOR 1 PERIMETER 2 RETURN AIR NODE NAME,Air,1
 Node,1101,MOB FLOOR 1 PERIMETER 3 AIR NODE,Air,0
 Node,1102,MOB FLOOR 1 PERIMETER 3 RETURN AIR NODE NAME,Air,1
 Node,1103,MOB FLOOR 2-4 CORE AIR NODE,Air,0
 Node,1104,MOB FLOOR 2-4 CORE RETURN AIR NODE NAME,Air,1
 Node,1105,MOB FLOOR 2-4 PERIMETER 1 AIR NODE,Air,0
 Node,1106,MOB FLOOR 2-4 PERIMETER 1 RETURN AIR NODE NAME,Air,1
 Node,1107,MOB FLOOR 2-4 PERIMETER 2 AIR NODE,Air,0
 Node,1108,MOB FLOOR 2-4 PERIMETER 2 RETURN AIR NODE NAME,Air,1
 Node,1109,MOB FLOOR 2-4 PERIMETER 3 AIR NODE,Air,0
 Node,1110,MOB FLOOR 2-4 PERIMETER 3 RETURN AIR NODE NAME,Air,1
 Node,1111,MOB FLOOR 2-4 PERIMETER 4 AIR NODE,Air,0
 Node,1112,MOB FLOOR 2-4 PERIMETER 4 RETURN AIR NODE NAME,Air,1
 Node,1113,MOB FLOOR 5 CORE AIR NODE,Air,0
 Node,1114,MOB FLOOR 5 CORE RETURN AIR NODE NAME,Air,1
 Node,1115,MOB FLOOR 5 PERIMETER 1 AIR NODE,Air,0
 Node,1116,MOB FLOOR 5 PERIMETER 1 RETURN AIR NODE NAME,Air,1
 Node,1117,MOB FLOOR 5 PERIMETER 2 AIR NODE,Air,0
 Node,1118,MOB FLOOR 5 PERIMETER 2 RETURN AIR NODE NAME,Air,1
 Node,1119,MOB FLOOR 5 PERIMETER 3 AIR NODE,Air,0
 Node,1120,MOB FLOOR 5 PERIMETER 3 RETURN AIR NODE NAME,Air,1
 Node,1121,MOB FLOOR 5 PERIMETER 4 AIR NODE,Air,0
 Node,1122,MOB FLOOR 5 PERIMETER 4 RETURN AIR NODE NAME,Air,1
 Node,1123,AHU2 ZONE EQUIPMENT INLET NODE,Air,2
 Node,1124,AHU1 ZONE EQUIPMENT INLET NODE,Air,2
 Node,1125,AHU3 ZONE EQUIPMENT INLET NODE,Air,2
 Node,1126,AHU5 ZONE EQUIPMENT INLET NODE,Air,2
 Node,1127,AHU4 ZONE EQUIPMENT INLET NODE,Air,2
 Node,1128,AHU6 ZONE EQUIPMENT INLET NODE,Air,2
 Node,1129,AHU2 ZONE EQUIPMENT OUTLET NODE,Air,2
 Node,1130,AHU1 ZONE EQUIPMENT OUTLET NODE,Air,2
 Node,1131,AHU3 ZONE EQUIPMENT OUTLET NODE,Air,2
 Node,1132,AHU5 ZONE EQUIPMENT OUTLET NODE,Air,2
 Node,1133,AHU4 ZONE EQUIPMENT OUTLET NODE,Air,2
 Node,1134,AHU6 ZONE EQUIPMENT OUTLET NODE,Air,2
 Node,1135,RACKA_REFRIGCOND_CONDENSERNODE,Air,1
 Node,1136,COOLSYS1 CHILLER TOWERSYS COOLTOWER OA REF NODE,Air,1
 Node,1137,RACKB_REFRIGCOND_CONDENSERNODE,Air,1
 Node,1138,FLOOR 1 CAFE VAV BOX INLET NODE NAME,Air,1
 Node,1139,FLOOR 1 CONFERENCE VAV BOX INLET NODE NAME,Air,1
 Node,1140,FLOOR 1 DINING VAV BOX INLET NODE NAME,Air,1
 Node,1141,FLOOR 1 ELEVATOR VAV BOX INLET NODE NAME,Air,1
 Node,1142,FLOOR 1 FOOD STORAGE VAV BOX INLET NODE NAME,Air,1
 Node,1143,FLOOR 1 GAS STORAGE VAV BOX INLET NODE NAME,Air,1
 Node,1144,FLOOR 1 KITCHEN VAV BOX INLET NODE NAME,Air,1
 Node,1145,FLOOR 1 LAB 2 VAV BOX INLET NODE NAME,Air,1
 Node,1146,FLOOR 1 LAUNDRY VAV BOX INLET NODE NAME,Air,1
 Node,1147,FLOOR 1 OFFICE 2 VAV BOX INLET NODE NAME,Air,1
 Node,1148,FLOOR 1 OFFICE 3 VAV BOX INLET NODE NAME,Air,1
 Node,1149,FLOOR 1 OFFICE 3 PERIMETER 1 VAV BOX INLET NODE NAME,Air,1
 Node,1150,FLOOR 1 OFFICE 3 PERIMETER 2 VAV BOX INLET NODE NAME,Air,1
 Node,1151,FLOOR 1 OFFICE 3 PERIMETER 3 VAV BOX INLET NODE NAME,Air,1
 Node,1152,FLOOR 1 RECEIVING VAV BOX INLET NODE NAME,Air,1
 Node,1153,FLOOR 2 CLEAN 2 VAV BOX INLET NODE NAME,Air,1
 Node,1154,FLOOR 2 ELEVATOR VAV BOX INLET NODE NAME,Air,1
 Node,1155,FLOOR 2 EXAM 3 VAV BOX INLET NODE NAME,Air,1
 Node,1156,FLOOR 2 EXAM 4 VAV BOX INLET NODE NAME,Air,1
 Node,1157,FLOOR 2 GIFT SHOP VAV BOX INLET NODE NAME,Air,1
 Node,1158,FLOOR 2 IMAGING 3 VAV BOX INLET NODE NAME,Air,1
 Node,1159,FLOOR 2 LOUNGE 1 VAV BOX INLET NODE NAME,Air,1
 Node,1160,FLOOR 2 LOUNGE 2 VAV BOX INLET NODE NAME,Air,1
 Node,1161,FLOOR 2 NURSE STATION 2 VAV BOX INLET NODE NAME,Air,1
 Node,1162,FLOOR 2 OFFICE 2 VAV BOX INLET NODE NAME,Air,1
 Node,1163,FLOOR 2 OFFICE 3 VAV BOX INLET NODE NAME,Air,1
 Node,1164,FLOOR 2 OFFICE 4 VAV BOX INLET NODE NAME,Air,1
 Node,1165,FLOOR 2 PACU VAV BOX INLET NODE NAME,Air,1
 Node,1166,FLOOR 2 RECEPTION VAV BOX INLET NODE NAME,Air,1
 Node,1167,FLOOR 2 RESTROOM 1 VAV BOX INLET NODE NAME,Air,1
 Node,1168,FLOOR 2 RESTROOM 2 VAV BOX INLET NODE NAME,Air,1
 Node,1169,FLOOR 2 SOIL 2 VAV BOX INLET NODE NAME,Air,1
 Node,1170,FLOOR 2 STORAGE 2 VAV BOX INLET NODE NAME,Air,1
 Node,1171,FLOOR 2 TRAUMA VAV BOX INLET NODE NAME,Air,1
 Node,1172,FLOOR 2 TRIAGE VAV BOX INLET NODE NAME,Air,1
 Node,1173,FLOOR 1 CLEAN VAV BOX INLET NODE NAME,Air,1
 Node,1174,FLOOR 1 EXAM VAV BOX INLET NODE NAME,Air,1
 Node,1175,FLOOR 1 IMAGING VAV BOX INLET NODE NAME,Air,1
 Node,1176,FLOOR 1 LAB 1 VAV BOX INLET NODE NAME,Air,1
 Node,1177,FLOOR 1 LOBBY VAV BOX INLET NODE NAME,Air,1
 Node,1178,FLOOR 1 LOUNGE VAV BOX INLET NODE NAME,Air,1
 Node,1179,FLOOR 1 MECH 1 VAV BOX INLET NODE NAME,Air,1
 Node,1180,FLOOR 1 MECH 2 VAV BOX INLET NODE NAME,Air,1
 Node,1181,FLOOR 1 OFFICE 1 VAV BOX INLET NODE NAME,Air,1
 Node,1182,FLOOR 1 PATIENT VAV BOX INLET NODE NAME,Air,1
 Node,1183,FLOOR 1 PHARMACY VAV BOX INLET NODE NAME,Air,1
 Node,1184,FLOOR 1 PHYSICAL THERAPY VAV BOX INLET NODE NAME,Air,1
 Node,1185,FLOOR 1 RECEPTION VAV BOX INLET NODE NAME,Air,1
 Node,1186,FLOOR 1 SOIL VAV BOX INLET NODE NAME,Air,1
 Node,1187,FLOOR 1 STORAGE VAV BOX INLET NODE NAME,Air,1
 Node,1188,FLOOR 1 WAITING VAV BOX INLET NODE NAME,Air,1
 Node,1189,FLOOR 2 CHAPEL VAV BOX INLET NODE NAME,Air,1
 Node,1190,FLOOR 2 CLEAN 1 VAV BOX INLET NODE NAME,Air,1
 Node,1191,FLOOR 2 CORRIDOR VAV BOX INLET NODE NAME,Air,1
 Node,1192,FLOOR 2 EXAM 1 VAV BOX INLET NODE NAME,Air,1
 Node,1193,FLOOR 2 EXAM 2 VAV BOX INLET NODE NAME,Air,1
 Node,1194,FLOOR 2 IMAGING 1 VAV BOX INLET NODE NAME,Air,1
 Node,1195,FLOOR 2 IMAGING 2 VAV BOX INLET NODE NAME,Air,1
 Node,1196,FLOOR 2 LAB 1 VAV BOX INLET NODE NAME,Air,1
 Node,1197,FLOOR 2 LAB 2 VAV BOX INLET NODE NAME,Air,1
 Node,1198,FLOOR 2 LOCKERS VAV BOX INLET NODE NAME,Air,1
 Node,1199,FLOOR 2 NURSE STATION 1 VAV BOX INLET NODE NAME,Air,1
 Node,1200,FLOOR 2 OFFICE 1 VAV BOX INLET NODE NAME,Air,1
 Node,1201,FLOOR 2 PATIENT 1 VAV BOX INLET NODE NAME,Air,1
 Node,1202,FLOOR 2 PATIENT 2 VAV BOX INLET NODE NAME,Air,1
 Node,1203,FLOOR 2 PROCEDURE 1 VAV BOX INLET NODE NAME,Air,1
 Node,1204,FLOOR 2 PROCEDURE 2 VAV BOX INLET NODE NAME,Air,1
 Node,1205,FLOOR 2 SOIL 1 VAV BOX INLET NODE NAME,Air,1
 Node,1206,FLOOR 2 STERILIZING VAV BOX INLET NODE NAME,Air,1
 Node,1207,FLOOR 2 STORAGE 1 VAV BOX INLET NODE NAME,Air,1
 Node,1208,FLOOR 2 WAITING VAV BOX INLET NODE NAME,Air,1
 Node,1209,FLOOR 2 OPERATING VAV BOX INLET NODE NAME,Air,1
 Node,1210,FLOOR 3 OPERATING VAV BOX INLET NODE NAME,Air,1
 Node,1211,FLOOR 3 CLEAN VAV BOX INLET NODE NAME,Air,1
 Node,1212,FLOOR 3 PATIENT 1 VAV BOX INLET NODE NAME,Air,1
 Node,1213,FLOOR 3 PATIENT 2 VAV BOX INLET NODE NAME,Air,1
 Node,1214,FLOOR 3 PATIENT CORRIDOR 2 VAV BOX INLET NODE NAME,Air,1
 Node,1215,FLOOR 3 SUPPLY VAV BOX INLET NODE NAME,Air,1
 Node,1216,FLOOR 3 TRIAGE VAV BOX INLET NODE NAME,Air,1
 Node,1217,FLOOR 4-6 CLEAN VAV BOX INLET NODE NAME,Air,1
 Node,1218,FLOOR 4-6 OFFICE VAV BOX INLET NODE NAME,Air,1
 Node,1219,FLOOR 4-6 PATIENT 1 VAV BOX INLET NODE NAME,Air,1
 Node,1220,FLOOR 4-6 PATIENT 2 VAV BOX INLET NODE NAME,Air,1
 Node,1221,FLOOR 4-6 PATIENT CORRIDOR 2 VAV BOX INLET NODE NAME,Air,1
 Node,1222,FLOOR 4-6 SUPPLY VAV BOX INLET NODE NAME,Air,1
 Node,1223,FLOOR 7 CLEAN VAV BOX INLET NODE NAME,Air,1
 Node,1224,FLOOR 7 OFFICE VAV BOX INLET NODE NAME,Air,1
 Node,1225,FLOOR 7 PATIENT 1 VAV BOX INLET NODE NAME,Air,1
 Node,1226,FLOOR 7 PATIENT 2 VAV BOX INLET NODE NAME,Air,1
 Node,1227,FLOOR 7 PATIENT CORRIDOR 2 VAV BOX INLET NODE NAME,Air,1
 Node,1228,FLOOR 7 SUPPLY VAV BOX INLET NODE NAME,Air,1
 Node,1229,FLOOR 3 ELEVATOR VAV BOX INLET NODE NAME,Air,1
 Node,1230,FLOOR 3 EXAM VAV BOX INLET NODE NAME,Air,1
 Node,1231,FLOOR 3 ICU VAV BOX INLET NODE NAME,Air,1
 Node,1232,FLOOR 3 NURSE STATION 1 VAV BOX INLET NODE NAME,Air,1
 Node,1233,FLOOR 3 NURSE STATION 2 VAV BOX INLET NODE NAME,Air,1
 Node,1234,FLOOR 3 NURSERY VAV BOX INLET NODE NAME,Air,1
 Node,1235,FLOOR 3 OFFICE VAV BOX INLET NODE NAME,Air,1
 Node,1236,FLOOR 3 PATIENT 3 VAV BOX INLET NODE NAME,Air,1
 Node,1237,FLOOR 3 PATIENT 4 VAV BOX INLET NODE NAME,Air,1
 Node,1238,FLOOR 3 PATIENT CORRIDOR 1 VAV BOX INLET NODE NAME,Air,1
 Node,1239,FLOOR 3 PROCEDURE VAV BOX INLET NODE NAME,Air,1
 Node,1240,FLOOR 3 SOIL VAV BOX INLET NODE NAME,Air,1
 Node,1241,FLOOR 3 WAITING VAV BOX INLET NODE NAME,Air,1
 Node,1242,FLOOR 4-6 ELEVATOR VAV BOX INLET NODE NAME,Air,1
 Node,1243,FLOOR 4-6 NURSE STATION VAV BOX INLET NODE NAME,Air,1
 Node,1244,FLOOR 4-6 PATIENT 3 VAV BOX INLET NODE NAME,Air,1
 Node,1245,FLOOR 4-6 PATIENT 4 VAV BOX INLET NODE NAME,Air,1
 Node,1246,FLOOR 4-6 PATIENT CORRIDOR 1 VAV BOX INLET NODE NAME,Air,1
 Node,1247,FLOOR 4-6 SOIL VAV BOX INLET NODE NAME,Air,1
 Node,1248,FLOOR 7 ELEVATOR VAV BOX INLET NODE NAME,Air,1
 Node,1249,FLOOR 7 NURSE STATION VAV BOX INLET NODE NAME,Air,1
 Node,1250,FLOOR 7 PATIENT 3 VAV BOX INLET NODE NAME,Air,1
 Node,1251,FLOOR 7 PATIENT 4 VAV BOX INLET NODE NAME,Air,1
 Node,1252,FLOOR 7 PATIENT CORRIDOR 1 VAV BOX INLET NODE NAME,Air,1
 Node,1253,FLOOR 7 SOIL VAV BOX INLET NODE NAME,Air,1
 Node,1254,MOB FLOOR 1 CORE VAV BOX INLET NODE NAME,Air,1
 Node,1255,MOB FLOOR 1 PERIMETER 1 VAV BOX INLET NODE NAME,Air,1
 Node,1256,MOB FLOOR 1 PERIMETER 2 VAV BOX INLET NODE NAME,Air,1
 Node,1257,MOB FLOOR 1 PERIMETER 3 VAV BOX INLET NODE NAME,Air,1
 Node,1258,MOB FLOOR 2-4 CORE VAV BOX INLET NODE NAME,Air,1
 Node,1259,MOB FLOOR 2-4 PERIMETER 1 VAV BOX INLET NODE NAME,Air,1
 Node,1260,MOB FLOOR 2-4 PERIMETER 2 VAV BOX INLET NODE NAME,Air,1
 Node,1261,MOB FLOOR 2-4 PERIMETER 3 VAV BOX INLET NODE NAME,Air,1
 Node,1262,MOB FLOOR 2-4 PERIMETER 4 VAV BOX INLET NODE NAME,Air,1
 Node,1263,MOB FLOOR 5 CORE VAV BOX INLET NODE NAME,Air,1
 Node,1264,MOB FLOOR 5 PERIMETER 1 VAV BOX INLET NODE NAME,Air,1
 Node,1265,MOB FLOOR 5 PERIMETER 2 VAV BOX INLET NODE NAME,Air,1
 Node,1266,MOB FLOOR 5 PERIMETER 3 VAV BOX INLET NODE NAME,Air,1
 Node,1267,MOB FLOOR 5 PERIMETER 4 VAV BOX INLET NODE NAME,Air,1
 Node,1268,FLOOR 1 CAFE VAV BOX DAMPER NODE,Air,1
 Node,1269,FLOOR 1 CLEAN VAV BOX DAMPER NODE,Air,1
 Node,1270,FLOOR 1 CONFERENCE VAV BOX DAMPER NODE,Air,1
 Node,1271,FLOOR 1 DINING VAV BOX DAMPER NODE,Air,1
 Node,1272,FLOOR 1 ELEVATOR VAV BOX DAMPER NODE,Air,1
 Node,1273,FLOOR 1 EXAM VAV BOX DAMPER NODE,Air,1
 Node,1274,FLOOR 1 FOOD STORAGE VAV BOX DAMPER NODE,Air,1
 Node,1275,FLOOR 1 GAS STORAGE VAV BOX DAMPER NODE,Air,1
 Node,1276,FLOOR 1 IMAGING VAV BOX DAMPER NODE,Air,1
 Node,1277,FLOOR 1 KITCHEN VAV BOX DAMPER NODE,Air,1
 Node,1278,FLOOR 1 LAB 1 VAV BOX DAMPER NODE,Air,1
 Node,1279,FLOOR 1 LAB 2 VAV BOX DAMPER NODE,Air,1
 Node,1280,FLOOR 1 LAUNDRY VAV BOX DAMPER NODE,Air,1
 Node,1281,FLOOR 1 LOBBY VAV BOX DAMPER NODE,Air,1
 Node,1282,FLOOR 1 LOUNGE VAV BOX DAMPER NODE,Air,1
 Node,1283,FLOOR 1 MECH 1 VAV BOX DAMPER NODE,Air,1
 Node,1284,FLOOR 1 MECH 2 VAV BOX DAMPER NODE,Air,1
 Node,1285,FLOOR 1 OFFICE 1 VAV BOX DAMPER NODE,Air,1
 Node,1286,FLOOR 1 OFFICE 2 VAV BOX DAMPER NODE,Air,1
 Node,1287,FLOOR 1 OFFICE 3 VAV BOX DAMPER NODE,Air,1
 Node,1288,FLOOR 1 OFFICE 3 PERIMETER 1 VAV BOX DAMPER NODE,Air,1
 Node,1289,FLOOR 1 OFFICE 3 PERIMETER 2 VAV BOX DAMPER NODE,Air,1
 Node,1290,FLOOR 1 OFFICE 3 PERIMETER 3 VAV BOX DAMPER NODE,Air,1
 Node,1291,FLOOR 1 PATIENT VAV BOX DAMPER NODE,Air,1
 Node,1292,FLOOR 1 PHARMACY VAV BOX DAMPER NODE,Air,1
 Node,1293,FLOOR 1 PHYSICAL THERAPY VAV BOX DAMPER NODE,Air,1
 Node,1294,FLOOR 1 RECEIVING VAV BOX DAMPER NODE,Air,1
 Node,1295,FLOOR 1 RECEPTION VAV BOX DAMPER NODE,Air,1
 Node,1296,FLOOR 1 SOIL VAV BOX DAMPER NODE,Air,1
 Node,1297,FLOOR 1 STORAGE VAV BOX DAMPER NODE,Air,1
 Node,1298,FLOOR 1 WAITING VAV BOX DAMPER NODE,Air,1
 Node,1299,FLOOR 2 CHAPEL VAV BOX DAMPER NODE,Air,1
 Node,1300,FLOOR 2 CLEAN 1 VAV BOX DAMPER NODE,Air,1
 Node,1301,FLOOR 2 CLEAN 2 VAV BOX DAMPER NODE,Air,1
 Node,1302,FLOOR 2 CORRIDOR VAV BOX DAMPER NODE,Air,1
[...]
 Non-Parent Node Connection,FLOOR 2 RESTROOM 1 RETURN AIR NODE NAME,AIRLOOPHVAC:ZONEMIXER,AHU2 RETURN AIR MIXER,Inlet,1
 Non-Parent Node Connection,FLOOR 2 RESTROOM 2 RETURN AIR NODE NAME,AIRLOOPHVAC:ZONEMIXER,AHU2 RETURN AIR MIXER,Inlet,1
 Non-Parent Node Connection,FLOOR 2 SOIL 2 RETURN AIR NODE NAME,AIRLOOPHVAC:ZONEMIXER,AHU2 RETURN AIR MIXER,Inlet,1
 Non-Parent Node Connection,FLOOR 2 STORAGE 2 RETURN AIR NODE NAME,AIRLOOPHVAC:ZONEMIXER,AHU2 RETURN AIR MIXER,Inlet,1
 Non-Parent Node Connection,FLOOR 2 TRAUMA RETURN AIR NODE NAME,AIRLOOPHVAC:ZONEMIXER,AHU2 RETURN AIR MIXER,Inlet,1
 Non-Parent Node Connection,FLOOR 2 TRIAGE RETURN AIR NODE NAME,AIRLOOPHVAC:ZONEMIXER,AHU2 RETURN AIR MIXER,Inlet,1
 Non-Parent Node Connection,AHU1 ZONE EQUIPMENT OUTLET NODE,AIRLOOPHVAC:ZONEMIXER,AHU1 RETURN AIR MIXER,Outlet,1
 Non-Parent Node Connection,FLOOR 1 CLEAN RETURN AIR NODE NAME,AIRLOOPHVAC:ZONEMIXER,AHU1 RETURN AIR MIXER,Inlet,1
 Non-Parent Node Connection,FLOOR 1 EXAM RETURN AIR NODE NAME,AIRLOOPHVAC:ZONEMIXER,AHU1 RETURN AIR MIXER,Inlet,1
 Non-Parent Node Connection,FLOOR 1 IMAGING RETURN AIR NODE NAME,AIRLOOPHVAC:ZONEMIXER,AHU1 RETURN AIR MIXER,Inlet,1
 Non-Parent Node Connection,FLOOR 1 LAB 1 RETURN AIR NODE NAME,AIRLOOPHVAC:ZONEMIXER,AHU1 RETURN AIR MIXER,Inlet,1
 Non-Parent Node Connection,FLOOR 1 LOBBY RETURN AIR NODE NAME,AIRLOOPHVAC:ZONEMIXER,AHU1 RETURN AIR MIXER,Inlet,1
 Non-Parent Node Connection,FLOOR 1 LOUNGE RETURN AIR NODE NAME,AIRLOOPHVAC:ZONEMIXER,AHU1 RETURN AIR MIXER,Inlet,1
 Non-Parent Node Connection,FLOOR 1 MECH 1 RETURN AIR NODE NAME,AIRLOOPHVAC:ZONEMIXER,AHU1 RETURN AIR MIXER,Inlet,1
 Non-Parent Node Connection,FLOOR 1 MECH 2 RETURN AIR NODE NAME,AIRLOOPHVAC:ZONEMIXER,AHU1 RETURN AIR MIXER,Inlet,1
 Non-Parent Node Connection,FLOOR 1 OFFICE 1 RETURN AIR NODE NAME,AIRLOOPHVAC:ZONEMIXER,AHU1 RETURN AIR MIXER,Inlet,1
 Non-Parent Node Connection,FLOOR 1 PATIENT RETURN AIR NODE NAME,AIRLOOPHVAC:ZONEMIXER,AHU1 RETURN AIR MIXER,Inlet,1
 Non-Parent Node Connection,FLOOR 1 PHARMACY RETURN AIR NODE NAME,AIRLOOPHVAC:ZONEMIXER,AHU1 RETURN AIR MIXER,Inlet,1
 Non-Parent Node Connection,FLOOR 1 PHYSICAL THERAPY RETURN AIR NODE NAME,AIRLOOPHVAC:ZONEMIXER,AHU1 RETURN AIR MIXER,Inlet,1
 Non-Parent Node Connection,FLOOR 1 RECEPTION RETURN AIR NODE NAME,AIRLOOPHVAC:ZONEMIXER,AHU1 RETURN AIR MIXER,Inlet,1
 Non-Parent Node Connection,FLOOR 1 SOIL RETURN AIR NODE NAME,AIRLOOPHVAC:ZONEMIXER,AHU1 RETURN AIR MIXER,Inlet,1
 Non-Parent Node Connection,FLOOR 1 STORAGE RETURN AIR NODE NAME,AIRLOOPHVAC:ZONEMIXER,AHU1 RETURN AIR MIXER,Inlet,1
 Non-Parent Node Connection,FLOOR 1 WAITING RETURN AIR NODE NAME,AIRLOOPHVAC:ZONEMIXER,AHU1 RETURN AIR MIXER,Inlet,1
 Non-Parent Node Connection,FLOOR 2 CHAPEL RETURN AIR NODE NAME,AIRLOOPHVAC:ZONEMIXER,AHU1 RETURN AIR MIXER,Inlet,1
 Non-Parent Node Connection,FLOOR 2 CLEAN 1 RETURN AIR NODE NAME,AIRLOOPHVAC:ZONEMIXER,AHU1 RETURN AIR MIXER,Inlet,1
 Non-Parent Node Connection,FLOOR 2 CORRIDOR RETURN AIR NODE NAME,AIRLOOPHVAC:ZONEMIXER,AHU1 RETURN AIR MIXER,Inlet,1
 Non-Parent Node Connection,FLOOR 2 EXAM 1 RETURN AIR NODE NAME,AIRLOOPHVAC:ZONEMIXER,AHU1 RETURN AIR MIXER,Inlet,1
 Non-Parent Node Connection,FLOOR 2 EXAM 2 RETURN AIR NODE NAME,AIRLOOPHVAC:ZONEMIXER,AHU1 RETURN AIR MIXER,Inlet,1
 Non-Parent Node Connection,FLOOR 2 IMAGING 1 RETURN AIR NODE NAME,AIRLOOPHVAC:ZONEMIXER,AHU1 RETURN AIR MIXER,Inlet,1
 Non-Parent Node Connection,FLOOR 2 IMAGING 2 RETURN AIR NODE NAME,AIRLOOPHVAC:ZONEMIXER,AHU1 RETURN AIR MIXER,Inlet,1
 Non-Parent Node Connection,FLOOR 2 LAB 1 RETURN AIR NODE NAME,AIRLOOPHVAC:ZONEMIXER,AHU1 RETURN AIR MIXER,Inlet,1
 Non-Parent Node Connection,FLOOR 2 LAB 2 RETURN AIR NODE NAME,AIRLOOPHVAC:ZONEMIXER,AHU1 RETURN AIR MIXER,Inlet,1
 Non-Parent Node Connection,FLOOR 2 LOCKERS RETURN AIR NODE NAME,AIRLOOPHVAC:ZONEMIXER,AHU1 RETURN AIR MIXER,Inlet,1
 Non-Parent Node Connection,FLOOR 2 NURSE STATION 1 RETURN AIR NODE NAME,AIRLOOPHVAC:ZONEMIXER,AHU1 RETURN AIR MIXER,Inlet,1
 Non-Parent Node Connection,FLOOR 2 OFFICE 1 RETURN AIR NODE NAME,AIRLOOPHVAC:ZONEMIXER,AHU1 RETURN AIR MIXER,Inlet,1
 Non-Parent Node Connection,FLOOR 2 PATIENT 1 RETURN AIR NODE NAME,AIRLOOPHVAC:ZONEMIXER,AHU1 RETURN AIR MIXER,Inlet,1
 Non-Parent Node Connection,FLOOR 2 PATIENT 2 RETURN AIR NODE NAME,AIRLOOPHVAC:ZONEMIXER,AHU1 RETURN AIR MIXER,Inlet,1
 Non-Parent Node Connection,FLOOR 2 PROCEDURE 1 RETURN AIR NODE NAME,AIRLOOPHVAC:ZONEMIXER,AHU1 RETURN AIR MIXER,Inlet,1
 Non-Parent Node Connection,FLOOR 2 PROCEDURE 2 RETURN AIR NODE NAME,AIRLOOPHVAC:ZONEMIXER,AHU1 RETURN AIR MIXER,Inlet,1
 Non-Parent Node Connection,FLOOR 2 SOIL 1 RETURN AIR NODE NAME,AIRLOOPHVAC:ZONEMIXER,AHU1 RETURN AIR MIXER,Inlet,1
 Non-Parent Node Connection,FLOOR 2 STERILIZING RETURN AIR NODE NAME,AIRLOOPHVAC:ZONEMIXER,AHU1 RETURN AIR MIXER,Inlet,1
 Non-Parent Node Connection,FLOOR 2 STORAGE 1 RETURN AIR NODE NAME,AIRLOOPHVAC:ZONEMIXER,AHU1 RETURN AIR MIXER,Inlet,1
 Non-Parent Node Connection,FLOOR 2 WAITING RETURN AIR NODE NAME,AIRLOOPHVAC:ZONEMIXER,AHU1 RETURN AIR MIXER,Inlet,1
 Non-Parent Node Connection,AHU3 ZONE EQUIPMENT OUTLET NODE,AIRLOOPHVAC:ZONEMIXER,AHU3 RETURN AIR MIXER,Outlet,1
 Non-Parent Node Connection,FLOOR 2 OPERATING RETURN AIR NODE NAME,AIRLOOPHVAC:ZONEMIXER,AHU3 RETURN AIR MIXER,Inlet,1
 Non-Parent Node Connection,FLOOR 3 OPERATING RETURN AIR NODE NAME,AIRLOOPHVAC:ZONEMIXER,AHU3 RETURN AIR MIXER,Inlet,1
 Non-Parent Node Connection,AHU5 ZONE EQUIPMENT OUTLET NODE,AIRLOOPHVAC:ZONEMIXER,AHU5 RETURN AIR MIXER,Outlet,1
 Non-Parent Node Connection,FLOOR 3 CLEAN RETURN AIR NODE NAME,AIRLOOPHVAC:ZONEMIXER,AHU5 RETURN AIR MIXER,Inlet,1
 Non-Parent Node Connection,FLOOR 3 PATIENT 1 RETURN AIR NODE NAME,AIRLOOPHVAC:ZONEMIXER,AHU5 RETURN AIR MIXER,Inlet,1
 Non-Parent Node Connection,FLOOR 3 PATIENT 2 RETURN AIR NODE NAME,AIRLOOPHVAC:ZONEMIXER,AHU5 RETURN AIR MIXER,Inlet,1
 Non-Parent Node Connection,FLOOR 3 PATIENT CORRIDOR 2 RETURN AIR NODE NAME,AIRLOOPHVAC:ZONEMIXER,AHU5 RETURN AIR MIXER,Inlet,1
 Non-Parent Node Connection,FLOOR 3 SUPPLY RETURN AIR NODE NAME,AIRLOOPHVAC:ZONEMIXER,AHU5 RETURN AIR MIXER,Inlet,1
 Non-Parent Node Connection,FLOOR 3 TRIAGE RETURN AIR NODE NAME,AIRLOOPHVAC:ZONEMIXER,AHU5 RETURN AIR MIXER,Inlet,1
 Non-Parent Node Connection,FLOOR 4-6 CLEAN RETURN AIR NODE NAME,AIRLOOPHVAC:ZONEMIXER,AHU5 RETURN AIR MIXER,Inlet,1
 Non-Parent Node Connection,FLOOR 4-6 OFFICE RETURN AIR NODE NAME,AIRLOOPHVAC:ZONEMIXER,AHU5 RETURN AIR MIXER,Inlet,1
 Non-Parent Node Connection,FLOOR 4-6 PATIENT 1 RETURN AIR NODE NAME,AIRLOOPHVAC:ZONEMIXER,AHU5 RETURN AIR MIXER,Inlet,1
 Non-Parent Node Connection,FLOOR 4-6 PATIENT 2 RETURN AIR NODE NAME,AIRLOOPHVAC:ZONEMIXER,AHU5 RETURN AIR MIXER,Inlet,1
 Non-Parent Node Connection,FLOOR 4-6 PATIENT CORRIDOR 2 RETURN AIR NODE NAME,AIRLOOPHVAC:ZONEMIXER,AHU5 RETURN AIR MIXER,Inlet,1
 Non-Parent Node Connection,FLOOR 4-6 SUPPLY RETURN AIR NODE NAME,AIRLOOPHVAC:ZONEMIXER,AHU5 RETURN AIR MIXER,Inlet,1
 Non-Parent Node Connection,FLOOR 7 CLEAN RETURN AIR NODE NAME,AIRLOOPHVAC:ZONEMIXER,AHU5 RETURN AIR MIXER,Inlet,1
 Non-Parent Node Connection,FLOOR 7 OFFICE RETURN AIR NODE NAME,AIRLOOPHVAC:ZONEMIXER,AHU5 RETURN AIR MIXER,Inlet,1
 Non-Parent Node Connection,FLOOR 7 PATIENT 1 RETURN AIR NODE NAME,AIRLOOPHVAC:ZONEMIXER,AHU5 RETURN AIR MIXER,Inlet,1
 Non-Parent Node Connection,FLOOR 7 PATIENT 2 RETURN AIR NODE NAME,AIRLOOPHVAC:ZONEMIXER,AHU5 RETURN AIR MIXER,Inlet,1
 Non-Parent Node Connection,FLOOR 7 PATIENT CORRIDOR 2 RETURN AIR NODE NAME,AIRLOOPHVAC:ZONEMIXER,AHU5 RETURN AIR MIXER,Inlet,1
 Non-Parent Node Connection,FLOOR 7 SUPPLY RETURN AIR NODE NAME,AIRLOOPHVAC:ZONEMIXER,AHU5 RETURN AIR MIXER,Inlet,1
 Non-Parent Node Connection,AHU4 ZONE EQUIPMENT OUTLET NODE,AIRLOOPHVAC:ZONEMIXER,AHU4 RETURN AIR MIXER,Outlet,1
 Non-Parent Node Connection,FLOOR 3 ELEVATOR RETURN AIR NODE NAME,AIRLOOPHVAC:ZONEMIXER,AHU4 RETURN AIR MIXER,Inlet,1
 Non-Parent Node Connection,FLOOR 3 EXAM RETURN AIR NODE NAME,AIRLOOPHVAC:ZONEMIXER,AHU4 RETURN AIR MIXER,Inlet,1
 Non-Parent Node Connection,FLOOR 3 ICU RETURN AIR NODE NAME,AIRLOOPHVAC:ZONEMIXER,AHU4 RETURN AIR MIXER,Inlet,1
 Non-Parent Node Connection,FLOOR 3 NURSE STATION 1 RETURN AIR NODE NAME,AIRLOOPHVAC:ZONEMIXER,AHU4 RETURN AIR MIXER,Inlet,1
 Non-Parent Node Connection,FLOOR 3 NURSE STATION 2 RETURN AIR NODE NAME,AIRLOOPHVAC:ZONEMIXER,AHU4 RETURN AIR MIXER,Inlet,1
 Non-Parent Node Connection,FLOOR 3 NURSERY RETURN AIR NODE NAME,AIRLOOPHVAC:ZONEMIXER,AHU4 RETURN AIR MIXER,Inlet,1
 Non-Parent Node Connection,FLOOR 3 OFFICE RETURN AIR NODE NAME,AIRLOOPHVAC:ZONEMIXER,AHU4 RETURN AIR MIXER,Inlet,1
 Non-Parent Node Connection,FLOOR 3 PATIENT 3 RETURN AIR NODE NAME,AIRLOOPHVAC:ZONEMIXER,AHU4 RETURN AIR MIXER,Inlet,1
 Non-Parent Node Connection,FLOOR 3 PATIENT 4 RETURN AIR NODE NAME,AIRLOOPHVAC:ZONEMIXER,AHU4 RETURN AIR MIXER,Inlet,1
 Non-Parent Node Connection,FLOOR 3 PATIENT CORRIDOR 1 RETURN AIR NODE NAME,AIRLOOPHVAC:ZONEMIXER,AHU4 RETURN AIR MIXER,Inlet,1
 Non-Parent Node Connection,FLOOR 3 PROCEDURE RETURN AIR NODE NAME,AIRLOOPHVAC:ZONEMIXER,AHU4 RETURN AIR MIXER,Inlet,1
 Non-Parent Node Connection,FLOOR 3 SOIL RETURN AIR NODE NAME,AIRLOOPHVAC:ZONEMIXER,AHU4 RETURN AIR MIXER,Inlet,1
 Non-Parent Node Connection,FLOOR 3 WAITING RETURN AIR NODE NAME,AIRLOOPHVAC:ZONEMIXER,AHU4 RETURN AIR MIXER,Inlet,1
 Non-Parent Node Connection,FLOOR 4-6 ELEVATOR RETURN AIR NODE NAME,AIRLOOPHVAC:ZONEMIXER,AHU4 RETURN AIR MIXER,Inlet,1
 Non-Parent Node Connection,FLOOR 4-6 NURSE STATION RETURN AIR NODE NAME,AIRLOOPHVAC:ZONEMIXER,AHU4 RETURN AIR MIXER,Inlet,1
 Non-Parent Node Connection,FLOOR 4-6 PATIENT 3 RETURN AIR NODE NAME,AIRLOOPHVAC:ZONEMIXER,AHU4 RETURN AIR MIXER,Inlet,1
 Non-Parent Node Connection,FLOOR 4-6 PATIENT 4 RETURN AIR NODE NAME,AIRLOOPHVAC:ZONEMIXER,AHU4 RETURN AIR MIXER,Inlet,1
 Non-Parent Node Connection,FLOOR 4-6 PATIENT CORRIDOR 1 RETURN AIR NODE NAME,AIRLOOPHVAC:ZONEMIXER,AHU4 RETURN AIR MIXER,Inlet,1
 Non-Parent Node Connection,FLOOR 4-6 SOIL RETURN AIR NODE NAME,AIRLOOPHVAC:ZONEMIXER,AHU4 RETURN AIR MIXER,Inlet,1
 Non-Parent Node Connection,FLOOR 7 ELEVATOR RETURN AIR NODE NAME,AIRLOOPHVAC:ZONEMIXER,AHU4 RETURN AIR MIXER,Inlet,1
 Non-Parent Node Connection,FLOOR 7 NURSE STATION RETURN AIR NODE NAME,AIRLOOPHVAC:ZONEMIXER,AHU4 RETURN AIR MIXER,Inlet,1
 Non-Parent Node Connection,FLOOR 7 PATIENT 3 RETURN AIR NODE NAME,AIRLOOPHVAC:ZONEMIXER,AHU4 RETURN AIR MIXER,Inlet,1
 Non-Parent Node Connection,FLOOR 7 PATIENT 4 RETURN AIR NODE NAME,AIRLOOPHVAC:ZONEMIXER,AHU4 RETURN AIR MIXER,Inlet,1
 Non-Parent Node Connection,FLOOR 7 PATIENT CORRIDOR 1 RETURN AIR NODE NAME,AIRLOOPHVAC:ZONEMIXER,AHU4 RETURN AIR MIXER,Inlet,1
 Non-Parent Node Connection,FLOOR 7 SOIL RETURN AIR NODE NAME,AIRLOOPHVAC:ZONEMIXER,AHU4 RETURN AIR MIXER,Inlet,1
 Non-Parent Node Connection,AHU6 ZONE EQUIPMENT OUTLET NODE,AIRLOOPHVAC:ZONEMIXER,AHU6 RETURN AIR MIXER,Outlet,1
 Non-Parent Node Connection,MOB FLOOR 1 CORE RETURN AIR NODE NAME,AIRLOOPHVAC:ZONEMIXER,AHU6 RETURN AIR MIXER,Inlet,1
 Non-Parent Node Connection,MOB FLOOR 1 PERIMETER 1 RETURN AIR NODE NAME,AIRLOOPHVAC:ZONEMIXER,AHU6 RETURN AIR MIXER,Inlet,1
 Non-Parent Node Connection,MOB FLOOR 1 PERIMETER 2 RETURN AIR NODE NAME,AIRLOOPHVAC:ZONEMIXER,AHU6 RETURN AIR MIXER,Inlet,1
 Non-Parent Node Connection,MOB FLOOR 1 PERIMETER 3 RETURN AIR NODE NAME,AIRLOOPHVAC:ZONEMIXER,AHU6 RETURN AIR MIXER,Inlet,1
 Non-Parent Node Connection,MOB FLOOR 2-4 CORE RETURN AIR NODE NAME,AIRLOOPHVAC:ZONEMIXER,AHU6 RETURN AIR MIXER,Inlet,1
 Non-Parent Node Connection,MOB FLOOR 2-4 PERIMETER 1 RETURN AIR NODE NAME,AIRLOOPHVAC:ZONEMIXER,AHU6 RETURN AIR MIXER,Inlet,1
 Non-Parent Node Connection,MOB FLOOR 2-4 PERIMETER 2 RETURN AIR NODE NAME,AIRLOOPHVAC:ZONEMIXER,AHU6 RETURN AIR MIXER,Inlet,1
 Non-Parent Node Connection,MOB FLOOR 2-4 PERIMETER 3 RETURN AIR NODE NAME,AIRLOOPHVAC:ZONEMIXER,AHU6 RETURN AIR MIXER,Inlet,1
 Non-Parent Node Connection,MOB FLOOR 2-4 PERIMETER 4 RETURN AIR NODE NAME,AIRLOOPHVAC:ZONEMIXER,AHU6 RETURN AIR MIXER,Inlet,1
 Non-Parent Node Connection,MOB FLOOR 5 CORE RETURN AIR NODE NAME,AIRLOOPHVAC:ZONEMIXER,AHU6 RETURN AIR MIXER,Inlet,1
 Non-Parent Node Connection,MOB FLOOR 5 PERIMETER 1 RETURN AIR NODE NAME,AIRLOOPHVAC:ZONEMIXER,AHU6 RETURN AIR MIXER,Inlet,1
 Non-Parent Node Connection,MOB FLOOR 5 PERIMETER 2 RETURN AIR NODE NAME,AIRLOOPHVAC:ZONEMIXER,AHU6 RETURN AIR MIXER,Inlet,1
 Non-Parent Node Connection,MOB FLOOR 5 PERIMETER 3 RETURN AIR NODE NAME,AIRLOOPHVAC:ZONEMIXER,AHU6 RETURN AIR MIXER,Inlet,1
 Non-Parent Node Connection,MOB FLOOR 5 PERIMETER 4 RETURN AIR NODE NAME,AIRLOOPHVAC:ZONEMIXER,AHU6 RETURN AIR MIXER,Inlet,1
 Non-Parent Node Connection,AHU2_OA-AHU2_HEATC 1NODE,OUTDOORAIR:MIXER,AHU2_OAMIXING BOX,Outlet,1
 Non-Parent Node Connection,AHU2_OAINLET NODE,OUTDOORAIR:MIXER,AHU2_OAMIXING BOX,Inlet,1
 Non-Parent Node Connection,AHU2_OARELIEF NODE,OUTDOORAIR:MIXER,AHU2_OAMIXING BOX,ReliefAir,1
 Non-Parent Node Connection,AHU2 SUPPLY EQUIPMENT INLET NODE,OUTDOORAIR:MIXER,AHU2_OAMIXING BOX,Inlet,1
 Non-Parent Node Connection,AHU1_OA-AHU1_HEATC 1NODE,OUTDOORAIR:MIXER,AHU1_OAMIXING BOX,Outlet,1
 Non-Parent Node Connection,AHU1_OAINLET NODE,OUTDOORAIR:MIXER,AHU1_OAMIXING BOX,Inlet,1
 Non-Parent Node Connection,AHU1_OARELIEF NODE,OUTDOORAIR:MIXER,AHU1_OAMIXING BOX,ReliefAir,1
 Non-Parent Node Connection,AHU1 SUPPLY EQUIPMENT INLET NODE,OUTDOORAIR:MIXER,AHU1_OAMIXING BOX,Inlet,1
 Non-Parent Node Connection,AHU3_OA-AHU3_HEATC 1NODE,OUTDOORAIR:MIXER,AHU3_OAMIXING BOX,Outlet,1
 Non-Parent Node Connection,AHU3_OAINLET NODE,OUTDOORAIR:MIXER,AHU3_OAMIXING BOX,Inlet,1
 Non-Parent Node Connection,AHU3_OARELIEF NODE,OUTDOORAIR:MIXER,AHU3_OAMIXING BOX,ReliefAir,1
 Non-Parent Node Connection,AHU3 SUPPLY EQUIPMENT INLET NODE,OUTDOORAIR:MIXER,AHU3_OAMIXING BOX,Inlet,1
 Non-Parent Node Connection,AHU5_OA-AHU5_HEATC 1NODE,OUTDOORAIR:MIXER,AHU5_OAMIXING BOX,Outlet,1
 Non-Parent Node Connection,AHU5_OAINLET NODE,OUTDOORAIR:MIXER,AHU5_OAMIXING BOX,Inlet,1
 Non-Parent Node Connection,AHU5_OARELIEF NODE,OUTDOORAIR:MIXER,AHU5_OAMIXING BOX,ReliefAir,1
 Non-Parent Node Connection,AHU5 SUPPLY EQUIPMENT INLET NODE,OUTDOORAIR:MIXER,AHU5_OAMIXING BOX,Inlet,1
 Non-Parent Node Connection,AHU4_OA-AHU4_HEATC 1NODE,OUTDOORAIR:MIXER,AHU4_OAMIXING BOX,Outlet,1
 Non-Parent Node Connection,AHU4_OAINLET NODE,OUTDOORAIR:MIXER,AHU4_OAMIXING BOX,Inlet,1
 Non-Parent Node Connection,AHU4_OARELIEF NODE,OUTDOORAIR:MIXER,AHU4_OAMIXING BOX,ReliefAir,1
 Non-Parent Node Connection,AHU4 SUPPLY EQUIPMENT INLET NODE,OUTDOORAIR:MIXER,AHU4_OAMIXING BOX,Inlet,1
 Non-Parent Node Connection,AHU6_OA-AHU6_HEATC 1NODE,OUTDOORAIR:MIXER,AHU6_OAMIXING BOX,Outlet,1
 Non-Parent Node Connection,AHU6_OAINLET NODE,OUTDOORAIR:MIXER,AHU6_OAMIXING BOX,Inlet,1
 Non-Parent Node Connection,AHU6_OARELIEF NODE,OUTDOORAIR:MIXER,AHU6_OAMIXING BOX,ReliefAir,1
 Non-Parent Node Connection,AHU6 SUPPLY EQUIPMENT INLET NODE,OUTDOORAIR:MIXER,AHU6_OAMIXING BOX,Inlet,1
 Non-Parent Node Connection,AHU2_OA-AHU2_HEATC 1NODE,CONTROLLER:OUTDOORAIR,AHU2_OA_CONTROLLER,Sensor,1
 Non-Parent Node Connection,AHU2_OAINLET NODE,CONTROLLER:OUTDOORAIR,AHU2_OA_CONTROLLER,Actuator,1
 Non-Parent Node Connection,AHU2_OARELIEF NODE,CONTROLLER:OUTDOORAIR,AHU2_OA_CONTROLLER,Actuator,1
 Non-Parent Node Connection,AHU2 SUPPLY EQUIPMENT INLET NODE,CONTROLLER:OUTDOORAIR,AHU2_OA_CONTROLLER,Sensor,1
 Non-Parent Node Connection,AHU1_OA-AHU1_HEATC 1NODE,CONTROLLER:OUTDOORAIR,AHU1_OA_CONTROLLER,Sensor,1
 Non-Parent Node Connection,AHU1_OAINLET NODE,CONTROLLER:OUTDOORAIR,AHU1_OA_CONTROLLER,Actuator,1
 Non-Parent Node Connection,AHU1_OARELIEF NODE,CONTROLLER:OUTDOORAIR,AHU1_OA_CONTROLLER,Actuator,1
 Non-Parent Node Connection,AHU1 SUPPLY EQUIPMENT INLET NODE,CONTROLLER:OUTDOORAIR,AHU1_OA_CONTROLLER,Sensor,1
 Non-Parent Node Connection,AHU3_OA-AHU3_HEATC 1NODE,CONTROLLER:OUTDOORAIR,AHU3_OA_CONTROLLER,Sensor,1
 Non-Parent Node Connection,AHU3_OAINLET NODE,CONTROLLER:OUTDOORAIR,AHU3_OA_CONTROLLER,Actuator,1
 Non-Parent Node Connection,AHU3_OARELIEF NODE,CONTROLLER:OUTDOORAIR,AHU3_OA_CONTROLLER,Actuator,1
 Non-Parent Node Connection,AHU3 SUPPLY EQUIPMENT INLET NODE,CONTROLLER:OUTDOORAIR,AHU3_OA_CONTROLLER,Sensor,1
 Non-Parent Node Connection,AHU5_OA-AHU5_HEATC 1NODE,CONTROLLER:OUTDOORAIR,AHU5_OA_CONTROLLER,Sensor,1
 Non-Parent Node Connection,AHU5_OAINLET NODE,CONTROLLER:OUTDOORAIR,AHU5_OA_CONTROLLER,Actuator,1
 Non-Parent Node Connection,AHU5_OARELIEF NODE,CONTROLLER:OUTDOORAIR,AHU5_OA_CONTROLLER,Actuator,1
 Non-Parent Node Connection,AHU5 SUPPLY EQUIPMENT INLET NODE,CONTROLLER:OUTDOORAIR,AHU5_OA_CONTROLLER,Sensor,1
 Non-Parent Node Connection,AHU4_OA-AHU4_HEATC 1NODE,CONTROLLER:OUTDOORAIR,AHU4_OA_CONTROLLER,Sensor,1
 Non-Parent Node Connection,AHU4_OAINLET NODE,CONTROLLER:OUTDOORAIR,AHU4_OA_CONTROLLER,Actuator,1
 Non-Parent Node Connection,AHU4_OARELIEF NODE,CONTROLLER:OUTDOORAIR,AHU4_OA_CONTROLLER,Actuator,1
 Non-Parent Node Connection,AHU4 SUPPLY EQUIPMENT INLET NODE,CONTROLLER:OUTDOORAIR,AHU4_OA_CONTROLLER,Sensor,1
 Non-Parent Node Connection,AHU6_OA-AHU6_HEATC 1NODE,CONTROLLER:OUTDOORAIR,AHU6_OA_CONTROLLER,Sensor,1
 Non-Parent Node Connection,AHU6_OAINLET NODE,CONTROLLER:OUTDOORAIR,AHU6_OA_CONTROLLER,Actuator,1
 Non-Parent Node Connection,AHU6_OARELIEF NODE,CONTROLLER:OUTDOORAIR,AHU6_OA_CONTROLLER,Actuator,1
 Non-Parent Node Connection,AHU6 SUPPLY EQUIPMENT INLET NODE,CONTROLLER:OUTDOORAIR,AHU6_OA_CONTROLLER,Sensor,1
 Non-Parent Node Connection,AHU2_FAN-AHU2 HUMIDIFIERNODE,HUMIDIFIER:STEAM:ELECTRIC,AHU2 HUMIDIFIER,Inlet,1
 Non-Parent Node Connection,AHU2 SUPPLY EQUIPMENT OUTLET NODE,HUMIDIFIER:STEAM:ELECTRIC,AHU2 HUMIDIFIER,Outlet,1
 Non-Parent Node Connection,AHU1_FAN-AHU1 HUMIDIFIERNODE,HUMIDIFIER:STEAM:ELECTRIC,AHU1 HUMIDIFIER,Inlet,1
 Non-Parent Node Connection,AHU1 SUPPLY EQUIPMENT OUTLET NODE,HUMIDIFIER:STEAM:ELECTRIC,AHU1 HUMIDIFIER,Outlet,1
 Non-Parent Node Connection,AHU3_FAN-AHU3 HUMIDIFIERNODE,HUMIDIFIER:STEAM:ELECTRIC,AHU3 HUMIDIFIER,Inlet,1
 Non-Parent Node Connection,AHU3 SUPPLY EQUIPMENT OUTLET NODE,HUMIDIFIER:STEAM:ELECTRIC,AHU3 HUMIDIFIER,Outlet,1
 Non-Parent Node Connection,AHU5_FAN-AHU5 HUMIDIFIERNODE,HUMIDIFIER:STEAM:ELECTRIC,AHU5 HUMIDIFIER,Inlet,1
 Non-Parent Node Connection,AHU5 SUPPLY EQUIPMENT OUTLET NODE,HUMIDIFIER:STEAM:ELECTRIC,AHU5 HUMIDIFIER,Outlet,1
 Non-Parent Node Connection,AHU4_FAN-AHU4 HUMIDIFIERNODE,HUMIDIFIER:STEAM:ELECTRIC,AHU4 HUMIDIFIER,Inlet,1
 Non-Parent Node Connection,AHU4 SUPPLY EQUIPMENT OUTLET NODE,HUMIDIFIER:STEAM:ELECTRIC,AHU4 HUMIDIFIER,Outlet,1
 Non-Parent Node Connection,COOLSYS1 PUMP-COOLSYS1 CHILLERNODE,CHILLER:ELECTRIC:REFORMULATEDEIR,COOLSYS1 CHILLER,Inlet,1
 Non-Parent Node Connection,COOLSYS1 SUPPLY EQUIPMENT OUTLET NODE,CHILLER:ELECTRIC:REFORMULATEDEIR,COOLSYS1 CHILLER,Outlet,1
 Non-Parent Node Connection,COOLSYS1 CHILLER WATER INLET NODE,CHILLER:ELECTRIC:REFORMULATEDEIR,COOLSYS1 CHILLER,Inlet,2
 Non-Parent Node Connection,COOLSYS1 CHILLER WATER OUTLET NODE,CHILLER:ELECTRIC:REFORMULATEDEIR,COOLSYS1 CHILLER,Outlet,2
 Non-Parent Node Connection,SWHSYS1 SUPPLY INLET NODE,PUMP:VARIABLESPEED,SWHSYS1 PUMP,Inlet,1
 Non-Parent Node Connection,SWHSYS1 PUMP-SWHSYS1 WATER HEATERNODEVIACONNECTOR,PUMP:VARIABLESPEED,SWHSYS1 PUMP,Outlet,1
 Non-Parent Node Connection,HEATSYS1 SUPPLY INLET NODE,PUMP:VARIABLESPEED,HEATSYS1 PUMP,Inlet,1
 Non-Parent Node Connection,HEATSYS1 PUMP-HEATSYS1 BOILERNODEVIACONNECTOR,PUMP:VARIABLESPEED,HEATSYS1 PUMP,Outlet,1
 Non-Parent Node Connection,COOLSYS1 SUPPLY INLET NODE,PUMP:VARIABLESPEED,COOLSYS1 PUMP,Inlet,1
 Non-Parent Node Connection,COOLSYS1 PUMP-COOLSYS1 CHILLERNODEVIACONNECTOR,PUMP:VARIABLESPEED,COOLSYS1 PUMP,Outlet,1
 Non-Parent Node Connection,COOLSYS1 CHILLER TOWERSYS SUPPLY INLET NODE,PUMP:CONSTANTSPEED,COOLSYS1 CHILLER TOWERSYS PUMP,Inlet,1
 Non-Parent Node Connection,COOLSYS1 CHILLER TOWERSYS PUMP-COOLSYS1 CHILLER TOWERSYS COOLTOWERNODEVIACONNECTOR,PUMP:CONSTANTSPEED,COOLSYS1 CHILLER TOWERSYS PUMP,Outlet,1
